 10
no_name:-267.853998941036
C     -0.08025    -0.00559     0.28138
H      1.95293     0.25838    -0.59921
C      1.13673     0.86517    -0.17530
C     -1.73850    -1.54335    -1.00522
H      2.00303     1.90334     1.82096
C     -2.53812    -2.30962    -1.67085
C     -0.92257    -0.78166    -0.34531
H      0.84029     1.67970    -0.85552
C      0.24635     0.49189     1.62102
C      1.30026     1.25879     1.29774
