  7
no_name:-191.141848704846
C      0.31852     0.52262     0.72644
H      0.48153    -1.56838     0.08278
C      0.52431    -0.54474    -0.31352
C     -1.06297     0.85622    -0.09484
C     -0.51444     1.46138     1.09779
C     -0.81306    -0.05637    -0.94706
H      1.40648    -0.39377    -0.95033
