 13
no_name:-307.315722743448
C      0.58643     2.02633    -0.21841
C     -0.63734    -0.01718    -0.21028
C     -2.81295    -1.41393    -0.76837
H      2.47447    -0.38183     1.18460
C     -1.81250    -0.77644    -0.50966
H     -3.69340    -1.98492    -0.99601
H      0.42379    -1.68652     0.65926
C     -0.57537     1.36261    -0.53526
C      0.47474    -0.62506     0.41015
C      1.62428     0.10996     0.70370
C      1.69879     1.47817     0.38659
H      2.59523     2.06170     0.61313
H     -1.42729     1.84982    -1.01546
