  9
no_name:-267.184072696206
C      0.61597     0.36913    -1.09598
C     -1.74637    -1.38344     1.22045
C      1.36800     0.91034    -1.87565
C     -0.26626    -0.26462    -0.19608
H      2.03558     1.38721    -2.57062
C     -0.72578    -0.03111     1.23871
H     -0.51910     0.69339     2.01736
C     -0.35664    -1.42513     0.70030
C     -1.69776    -0.40380     0.10520
