 19
no_name:-348.428097964127
C      0.05511     0.51915    -1.15904
H     -1.74767     1.46584     0.97107
H     -1.27842    -1.14355    -1.71228
H      0.29600    -2.20881    -0.04447
H      0.83758     2.09999     0.29242
H     -2.13256     0.37431    -1.29882
H      0.43491     0.95377    -2.08455
H      4.69538    -0.30405    -0.68455
H      0.56649    -1.44118     1.55152
H     -1.99618    -1.18098     0.85582
C     -1.16103    -0.60516     0.43652
C     -0.89238     0.77760     1.07297
H     -0.62131     0.70950     2.13885
C      0.28281     1.16711     0.18478
C     -1.25569    -0.25178    -1.06534
C      1.01682    -0.13409    -0.15947
C      0.23144    -1.26400     0.51752
C      2.43291    -0.19204    -0.36934
C      3.63378    -0.24913    -0.53638
