 11
no_name:-305.933656792292
H      1.59129     1.54496     4.67397
H     -1.13528    -0.49211    -4.11176
C     -0.47093    -0.03103    -1.01745
C     -0.91887    -0.33676    -3.05686
C      0.37554     0.59996     1.35965
C     -0.05364     0.27920     0.24204
C      0.82853     0.94683     2.59052
C      1.23686     1.26585     3.69935
C     -0.38061    -1.10080    -1.98634
H     -0.52323    -2.17420    -1.78146
C     -1.51800     0.36467    -1.98129
