 13
no_name:-232.405068020893
H      3.89137    -1.47133     0.23841
H     -2.43627    -0.02876    -0.17713
H     -1.83487     1.62786    -0.45862
C     -0.52099     0.41558     0.91068
C      1.75041    -0.64098     0.03797
C     -1.53102     0.58908    -0.26493
C      2.89447    -1.08456     0.14458
H     -0.74066    -0.90923    -1.77353
C      0.47497    -0.14508    -0.08253
H     -0.20288     1.35331     1.40132
H     -0.82944    -0.28574     1.70672
C     -0.46594     0.02748    -1.25612
H     -0.11601     0.73957    -2.02537
