  8
no_name:-154.441472533143
H      0.80649    -0.93042     1.09740
H      0.27123     0.06247    -1.84301
H     -0.48856    -1.58445    -0.05533
C      0.16142    -0.75114     0.23099
H      1.56632     0.71625    -0.69046
C     -0.47142     0.61727     0.16579
C     -1.30960     1.48421     0.61169
C      0.60384     0.20808    -0.80999
