 10
no_name:-305.283022437318
C      0.44856    -0.61370     0.15984
C      1.62687    -0.49854    -0.56502
C     -0.75372    -0.21960     0.52505
C     -1.84378     0.63918     0.48832
H      3.58382    -0.33761    -1.74550
C      2.66695    -0.41714    -1.18989
C     -0.24586    -1.46238     1.16358
H     -3.65978     2.03546     0.44733
C     -2.80913     1.37851     0.46989
C     -0.33740    -2.48330     1.96632
