 14
no_name:-270.454089622157
H      0.58780    -2.56107    -0.38147
C     -0.58833     0.62433     0.23264
H     -0.31344     1.44596    -1.84704
C     -1.59140     1.33412     0.83346
H     -1.90724     1.11449     1.85635
C      0.20336    -0.51326     0.84319
C      0.63272    -1.48069    -0.24784
C      1.02515    -0.30402    -1.14403
H     -2.10517     2.14205     0.30649
H      1.64414    -0.47166    -2.02832
H      2.61227    -0.59145     0.66330
H      0.02308    -0.86789     1.86099
C     -0.03260     0.74192    -1.06519
C      1.60429    -0.53546     0.25350
