 10
no_name:-155.764107922148
H      0.36647    -1.46366     2.49621
C      0.97533    -1.00908     1.70555
C      0.44992    -0.64594     0.56129
H     -1.72244     1.00363    -1.15852
H     -0.58561     1.74824     0.00088
H     -0.10390    -1.01329    -1.39721
C     -0.65938     1.08393    -0.87236
H     -0.13465     1.56193    -1.71765
C     -0.07875    -0.27685    -0.58122
H      2.04341    -0.87355     1.91378
