 17
no_name:-309.764080864212
C      0.32702    -0.08610     0.22079
C     -0.86082    -0.67783     0.06179
H      3.64652     0.34998    -0.21123
C      2.59613     0.42161     0.07870
H      2.61766     2.20262     1.37966
H     -3.99315    -0.61263    -0.73431
C     -2.02855    -1.25162    -0.09095
H     -0.01133     2.02073     0.72829
C      2.06815     1.38793     0.90666
H      0.30626     0.99163     2.13010
H      1.72402    -1.33382    -1.00979
C      0.58989     1.16047     1.07510
C      1.58676    -0.47665    -0.35102
H     -2.67078    -0.14078    -1.84123
C     -3.03356    -0.93599    -1.17387
H     -3.24589    -1.83186    -1.78288
H     -2.32258    -2.03969     0.62225
