 14
no_name:-382.667164077517
C      2.13837     1.13236    -0.47430
H      1.67951     1.36189    -2.66900
C     -1.00402    -0.48236    -1.61557
C      1.80057     0.84085     0.69918
C     -0.56613    -0.13273     1.83560
C     -1.60901    -0.64726     1.06448
C     -1.10920    -0.85339    -0.28976
H     -0.69412     0.19722     2.86882
C      0.66998     0.02944     1.03271
C      0.53785    -0.13866    -1.49116
C      1.52173     0.83097    -1.72912
H     -2.62377    -0.80018     1.43269
C      0.32776    -0.55364    -0.16529
H     -1.73541    -0.19230    -2.37751
