 13
no_name:-307.206114866686
C      0.26255    -0.18293    -1.22347
H     -2.72506    -2.72167     1.40538
H      2.28137     1.91955     0.19407
C     -1.11364    -1.26423     0.68197
H     -0.21534    -0.70991    -2.04994
C      0.68220     0.47683     0.91698
H      0.69719     0.60751     1.99845
H      0.39844     2.12996    -1.97951
C      1.54147     1.15957    -0.06057
C     -0.12564    -0.37227     0.20492
C     -1.97155    -2.03871     1.06066
C      0.74607     1.27427    -1.39580
C      1.73061     0.26645    -1.30722
