 12
no_name:-306.614340762028
C      0.50371    -0.05100     1.45145
C      0.69811    -1.24490    -0.57672
H      0.26715    -0.67637     2.31798
C     -0.75944     1.80684     0.19296
C     -1.21031     0.95569    -0.85387
C     -1.14485    -0.19086    -1.32728
C     -0.12047     1.05602     1.11413
C      1.39403    -0.56728     0.30948
H     -0.80021    -2.37465    -1.67969
C     -0.43027    -1.42067    -1.29526
H     -0.81147     2.89861     0.18424
H      2.41417    -0.19641     0.16898
