 12
no_name:-306.616307236303
H     -2.93702    -0.21999     1.17332
C     -1.04450     0.07309     0.28457
C      1.40233     0.65978    -1.07276
C      2.41165    -0.16744    -0.57439
C      0.23911     0.30638    -0.35416
C      2.34358    -1.05060     0.32262
H     -2.83622     1.09627    -0.16396
C      0.16468    -0.65650     0.62411
C      1.23840    -1.45474     1.07565
C     -2.34496     0.33087     0.43991
H      1.47249     1.42197    -1.84976
H      1.18977    -2.22040     1.85089
