 13
no_name:-269.875614394352
C     -0.23344    -1.72019    -0.83719
H     -1.62195     0.98839    -1.84580
H     -0.43452    -0.75391     1.78062
C     -1.16974     0.74823    -0.88116
H     -0.44184     2.78430    -0.21263
H      0.95526     1.54216     1.63133
C     -0.41848     1.70109    -0.06287
C      0.74324    -1.54613     0.08493
H      1.72195    -2.00088     0.25251
C      0.35050     1.05511     0.86357
H     -0.37319    -2.39609    -1.68289
C      0.00095    -0.40041     0.82801
C     -0.92591    -0.49690    -0.37980
