  9
no_name:-229.938801878654
H      1.67087     0.97549     0.37220
C      0.70654     0.46169     0.31526
C      0.32237    -0.12120    -0.91459
C     -1.32460    -0.25999     1.34047
C     -1.60739    -0.76973     0.17810
H      0.97635    -0.05867    -1.78802
C     -0.92218    -0.76391    -0.92721
C     -0.10201     0.41029     1.47437
H      0.23143     0.87439     2.40600
