 13
no_name:-344.640262907528
H      2.81001     0.99916     0.13621
H     -3.46945    -3.26669     0.70878
C      1.23923     1.10503    -1.28274
H      1.94816     1.36882    -2.07427
C     -0.16761     1.04712    -1.51495
C     -2.07709    -1.46561     0.48203
C      1.72776     0.90564    -0.00418
C     -1.23085    -0.33003     0.33680
C      0.90401     0.78806     1.19343
C     -2.81954    -2.41834     0.60006
H      1.24361     1.30501     2.10074
C     -1.01477     0.42454    -0.83810
C     -0.25621     0.09990     1.19536
