 14
no_name:-382.650244599007
H     -0.56532    -1.66031    -2.67729
C     -0.25204    -1.24408    -1.71605
C      0.11578    -2.07876    -0.69057
C      0.65040    -1.58366     0.58830
H      1.55572    -2.06236     0.98534
C     -0.13887     1.76567     0.45798
C     -0.17697     0.14985    -1.49874
C     -0.13551     3.07701     0.78853
C     -0.13468     4.30786     1.13908
C     -0.37905     0.66290     1.45709
H      0.11913    -3.15878    -0.87420
C     -0.03868     1.17581    -0.83367
C      0.13438    -0.52233     1.18811
H     -1.03641     0.88113     2.30447
