  9
no_name:-155.053977369904
H     -0.22813     1.69531    -1.51071
C      0.20274     0.59128     0.37176
H      1.25515    -1.23147     1.09124
C     -0.35985     0.71559    -1.03710
C      0.46285    -0.90811     0.40621
H     -0.37125    -1.62222     0.30344
H     -1.29294     0.19688    -1.31365
H      0.43291     1.36305     1.10875
C      0.87765    -0.05211    -0.73665
