 12
no_name:-231.704551440435
C      0.85146     0.04370    -0.18779
H     -0.37797     0.88025    -2.07102
C      0.01747     0.55482     1.01196
H      0.54087    -1.51134    -1.73611
H     -0.64421     0.82984     2.93984
H      1.90843     0.23840    -0.38486
C     -0.34218     0.44484    -1.06938
H     -2.02137     1.33068     0.34219
C     -0.00405     0.14319     2.34030
H     -0.58314    -1.67879    -0.27848
C      0.07636    -1.03147    -0.86634
C     -1.00332     0.96719     0.15714
