 11
no_name:-231.181029341253
C     -1.07541    -0.80082     0.72387
C      0.51157     0.27212    -0.80151
H     -3.09075    -1.37951     0.87656
H      3.22578     2.69851    -1.41793
C      1.53615     1.18964    -1.02722
C      2.43679     1.99469    -1.23160
C     -0.09088     0.07351     0.47360
H     -1.81669    -2.68879     1.27488
C     -2.03131    -1.65490     0.97101
H      0.27968     0.68218     1.30863
H      0.15382    -0.32578    -1.64648
