 15
no_name:-271.101890345545
C     -0.82554     1.61443     0.25452
C     -0.18411    -1.00458    -0.70335
C     -1.40883    -0.43420    -0.79098
H     -2.83624     0.88455     0.30656
H     -0.03036    -1.90400    -1.31282
H      1.44215    -1.56038     0.54763
C     -1.80579     0.77402    -0.04992
H      1.10142     2.53638     0.18111
C      1.06210    -0.63053     0.08290
H     -2.16303    -0.93350    -1.41077
C      1.02911     0.46729     1.16822
H      2.05008     0.61790     1.55517
H      0.40497     0.14336     2.01540
H      1.83506    -0.36629    -0.66578
C      0.44817     1.73911     0.55045
