 13
no_name:-269.794295955556
H      0.05484     1.44196     3.96641
C     -0.67860    -1.45059    -1.04168
H     -0.59484     1.41401    -1.19676
H     -1.19318    -2.14840    -1.71288
C     -0.29602     0.58339     1.86993
C      0.40901    -0.52044    -1.53872
C     -0.10669     1.04850     2.98007
C     -0.50792     0.08518     0.56708
H      0.98753     1.35518    -0.39059
H      1.43863    -0.87226    -1.33907
C      0.10708     0.75037    -0.66087
H      0.33495    -0.35402    -2.62683
C     -1.07081    -1.13343     0.22490
