 14
no_name:-270.445901393524
C     -0.95706    -1.62366     1.18659
C      1.10719     0.56469    -0.88151
H     -2.87828    -0.82838     0.56527
H      3.17188     3.44999    -1.90494
C      1.88432     1.65750    -1.26189
C      2.57006     2.61465    -1.60091
C      0.52918     0.42880     0.41359
H     -2.93471    -1.85710     2.02639
C     -2.45658    -1.72562     1.04053
H      0.71684     1.23605     1.13410
H      0.93268    -0.22918    -1.61567
C     -0.21919    -0.61186     0.80791
H     -2.72831    -2.60476     0.43144
H     -0.45451    -2.48475     1.65648
