 19
no_name:-385.84560561812
C      1.49700    -1.59394    -0.65030
H      3.56537    -0.68691    -0.83016
H     -2.36969     0.55168    -0.43226
C     -0.94516    -1.79618    -0.26160
H     -2.54847     1.85116     0.78061
C      0.26218    -1.05014    -0.32251
C      1.89746     0.62998    -0.27246
C      0.47231     0.37684    -0.07143
H     -2.84752    -3.06820    -0.18816
C     -1.95198    -2.47792    -0.22517
C      2.50609    -0.54406    -0.61600
C     -0.50019     1.36304     0.30230
H      1.67194    -2.64204    -0.89285
H      2.38474     1.59619    -0.16231
H     -0.86283     3.42337     0.77870
H      0.90438     3.00593     0.37013
C     -1.94780     0.97747     0.49040
H     -2.05610     0.20348     1.26473
C     -0.12550     2.66915     0.49320
