 11
no_name:-305.989381668311
C      0.91278     0.29536     2.29996
C      1.67126     0.97028    -0.17613
C     -1.56891    -0.85572    -0.41096
C      0.58018     0.41404    -0.86862
H      2.51112     1.49412    -0.63177
C     -0.36506    -0.20969    -0.00559
H     -3.50089    -1.88219    -1.07824
C      0.08501    -0.08071     1.30562
C      1.51331     0.74796     1.17825
C     -2.59357    -1.39796    -0.76919
H      0.45617     0.44919    -1.95465
