 18
no_name:-310.405380495886
H      2.38437     2.26502    -0.24781
C     -0.47519    -0.54809     1.10561
H      1.30619    -1.61314     1.95250
C      0.76072     0.32508     0.99500
H      1.14338     0.89679     1.84391
H     -2.80908    -0.94176    -1.52774
H     -2.27323    -2.25006    -0.43256
C     -1.18216    -0.41001    -0.21098
H      1.17187    -1.70921     0.11374
H     -0.75453     0.64717    -2.06236
C     -0.49135     0.42100    -1.02651
H      1.41162     2.31794    -1.84257
C      0.69310     0.97660    -0.35706
H     -1.05561    -0.63508     2.02950
C      1.54086     1.90090    -0.84011
C     -2.43603    -1.16054    -0.51636
C      0.89646    -1.18390     1.03331
H     -3.23192    -0.90900     0.20727
