 11
no_name:-231.140756861094
H      1.95210    -1.54919    -1.86609
H     -0.29046    -1.46699    -0.79894
H      2.45572     0.00240    -0.95204
C      0.45535    -0.69886    -0.56494
H     -2.63026     1.69437     2.20233
C     -1.24143     0.30356     0.91036
H      0.77485     1.08350     0.62643
C     -2.23828     0.85859     1.62051
C      0.06612     0.29494     0.34888
C      1.69291    -0.75311    -1.16448
C     -2.47710    -0.41492     1.06450
