 18
no_name:-385.249693688142
H     -1.99257    -0.83096     0.79627
C      0.40425    -2.17024     1.44846
H     -2.65519     1.80125    -1.27164
C      0.65362    -3.23596     1.97694
H      0.85194    -4.18348     2.44143
C      0.69697     1.56386    -1.63005
H     -1.06446     1.76829     0.83223
C      1.32643     0.01813     0.42118
C      0.17199    -0.90962     0.83249
C      0.57209     1.02885    -0.39575
H      1.60710     1.60717    -2.23187
H      2.10796    -0.51136    -0.14605
C     -0.88584     1.03960     0.00763
C     -1.03659    -0.35813     0.56392
C     -0.63986     1.96282    -2.10805
C     -1.58545     1.59686    -1.20968
H      1.80990     0.44135     1.32248
H     -0.82567     2.46559    -3.05992
