 14
no_name:-195.596453550074
H      1.47045     1.42120    -1.12080
C     -0.55060    -0.34940     0.32701
H     -1.06620    -0.27878     1.30836
C      0.99235    -0.12737     0.47381
H      1.37495    -0.11388     1.50522
H     -0.52051    -1.74786    -1.34677
H     -2.10920    -1.59752    -0.55455
C     -1.02196    -1.62437    -0.37253
H      1.58451    -0.84792    -0.11121
H     -1.41426     1.49090    -0.92199
C     -0.59741     0.94717    -0.43807
H      1.04731     2.12823     0.45234
C      0.85227     1.26535    -0.21570
H     -0.80405    -2.51508     0.24070
