 11
no_name:-343.270106966835
H      2.97239     2.03460    -1.03733
C     -0.63460    -0.51144     0.29868
C     -0.44873    -1.15772     1.57997
H      1.79872     2.24607    -2.48729
C      1.11844     1.02375    -0.89940
C      2.00877     1.80695    -1.50592
C      0.27966     0.28078    -0.33150
C     -2.34696    -1.82124     1.50906
C     -1.33479    -1.77701     2.38244
C     -2.97082    -1.49561     0.37134
C     -1.92298    -0.90299    -0.23106
