  7
no_name:-191.152011979053
H      1.79295    -0.91283    -0.68206
C     -0.37355    -0.67922    -0.22258
H     -1.85641     1.02500     0.02247
C      1.08331    -0.63236     0.10864
C     -0.87476     0.56936    -0.08982
C      0.37035     0.63558     0.63481
C      1.44845     0.11805     1.31669
