 13
no_name:-232.395824747349
H     -0.89223     0.27429    -3.28883
C     -1.26319    -0.43328    -2.52493
H     -2.36103    -0.32734    -2.48509
C      0.42376     0.29990     1.07859
C      1.53336     0.07244     2.01037
H     -0.34215     0.70599     3.11910
C     -0.65705    -0.17994    -1.22700
H     -1.03745    -1.45199    -2.88477
H      2.51578     0.50874     1.78214
H      1.59068    -0.88727     2.54262
C     -0.13641     0.05987    -0.13297
C      0.38064     1.02260     2.35427
H      0.58163     2.10294     2.35914
