 14
no_name:-232.94310291741
C     -0.44749     0.87907     0.14864
H      1.89963    -0.67602     0.82884
H     -1.42799    -0.96454    -0.73457
C      0.53807     0.16300    -0.68106
H      0.29107     0.49637     2.18414
H     -0.86615     1.60132    -2.28121
H     -0.71629     1.93696     0.17811
C     -0.17394    -0.04045     1.34436
H      1.21920     0.53107    -1.45100
H      0.68281    -1.86723     0.26996
H     -1.03418    -0.61683     1.71937
C      0.86902    -0.79959     0.46539
C     -0.98465    -0.00386    -1.03692
C     -1.46955     0.66320    -2.18879
