 17
no_name:-384.562156488829
H     -1.14024     0.24025     3.08969
C      0.39988    -0.35889    -0.77903
C      2.36931     0.94344    -1.97215
C     -1.29364    -0.52897     1.06650
H      0.11828     1.08534     0.81044
H      3.84981     1.21487    -3.48891
C      3.37654     1.61408    -2.58661
H     -2.60642    -2.29796     1.07766
H     -2.68745    -0.56189     2.72883
C     -1.90182     0.08275     2.30870
C      1.44721     0.32491    -1.41267
C     -1.79290    -1.76889     0.57749
H     -2.35289     1.06435     2.08883
H      3.74843     2.56283    -2.18789
C     -1.11290    -2.16121    -0.56610
C     -0.17849    -1.58533    -1.16421
C     -0.24203     0.13531     0.40647
