 17
no_name:-347.147643496165
C      0.58203     0.99736    -0.61883
H      1.91490    -0.51995    -1.62343
H     -1.73546    -2.14063    -0.01872
H     -1.48970     2.27603    -0.96467
C     -0.83437    -1.53331    -0.12868
C      0.96716    -0.36926    -1.09486
H     -1.46674    -1.43536     2.59663
C     -0.21422    -0.81199     0.99428
C      0.92510    -0.02073     0.41979
C     -0.16883    -1.31703    -1.28419
C     -0.43222     2.03786    -0.88076
H     -0.43966    -1.74010    -2.25444
H     -0.06649    -0.28496     3.05345
H      1.54728     3.21889    -1.06254
C     -0.60219    -0.84428     2.28210
C      0.81896     2.42336    -0.91937
H      1.84682     0.10027     0.99745
