 12
no_name:-231.792344586764
C     -0.56929     0.30283     1.74718
H     -0.31801    -0.59943    -2.67375
C      0.29509    -0.08228    -0.70109
H      0.62061     0.89659    -2.56330
H      1.36387    -1.91011     0.09221
H     -1.68726     0.88602     3.65927
C     -0.15468     0.29873    -2.05300
C     -1.15943     0.60995     2.76600
H      2.35221    -0.35629     0.19697
C      0.13399    -0.06707     0.59840
H     -1.08703     0.88175    -2.02023
C      1.35329    -0.80737     0.07370
