 10
no_name:-305.300516039506
H     -2.94505    -0.30210     0.92308
C     -1.01848     0.06367     0.13856
C      1.18759     0.86805    -1.04678
C      2.12190    -0.01984    -0.62956
C      0.00057     0.74683    -0.64152
C      2.26859    -1.05073     0.10038
H     -2.78742     1.17906    -0.22584
C     -0.18549    -0.99790     0.71110
C      1.02142    -1.31241     0.62689
C     -2.32827     0.33186     0.28533
