 16
no_name:-383.934779782453
H      0.80389     3.08724    -1.27786
C     -1.22635    -0.80606     1.63664
C      1.35412     1.51616    -2.78370
H     -0.27082    -4.20959     5.00851
C      1.18554     2.05637    -1.36653
C      0.09596     0.95470    -1.24545
C     -0.71746    -2.61130     3.42623
H      2.01583     1.80297    -3.60284
H     -0.01478    -0.20761    -3.28901
C      0.39945     0.56793    -2.64184
C     -0.98730    -1.65736     2.48253
C     -1.53816     0.18690     0.66897
C     -0.71501     0.57049    -0.29617
H      2.04384     1.92321    -0.68710
C     -0.48051    -3.46113     4.26790
H     -2.53527     0.64878     0.73876
