 13
no_name:-195.030247096968
C     -0.11306    -0.27852     0.40890
H      2.89184     1.08174    -0.74599
H     -2.14577     0.20781     1.22826
C     -1.56045     0.16658     0.30533
H     -1.10994    -1.30579    -1.31709
C      0.91638     0.36703    -0.43285
H     -1.79187     0.96345    -0.40808
H      0.58454     0.67002    -1.43547
H      0.23176    -0.57419     1.40551
H      2.55369     0.31285     0.92084
C      2.18244     0.59898    -0.06891
H     -1.46092    -2.07142     0.31520
C     -1.15758    -1.17415    -0.23173
