 11
no_name:-156.364286231805
C      0.13992    -0.18937    -0.21611
H      1.08857    -1.56932    -1.58930
H     -1.19117    -1.85283    -0.63116
H     -0.07702     1.03020     1.57060
H      2.11011    -0.07464    -1.12030
C     -1.04569    -0.91458    -0.08931
H      1.32808     1.46180     0.56225
H     -1.85977    -0.56741     0.55214
C      0.28244     1.12163     0.53346
H     -0.31459     1.91365     0.05038
C      1.17797    -0.63695    -1.02513
