 16
no_name:-309.127901560941
C     -0.48129     2.20979     0.21404
H      1.66941     1.86681    -0.03170
H     -1.71877    -0.84096     0.92692
H     -0.57918     3.28212     0.03355
H     -2.64463     1.63286     0.61741
C     -1.60426     1.31343     0.52991
C     -1.14332     0.05483     0.69308
C      0.66625     1.49811     0.18398
C      0.36254     0.05469     0.50783
H      0.82457    -0.20450     1.48598
H      1.54669    -3.08488    -0.26723
C      0.84134    -0.93980    -0.48520
H      1.96506    -0.94510    -2.49902
C      0.87024    -2.40883    -0.81815
H     -0.05049    -2.90878    -1.16437
C      1.43382    -1.24532    -1.59977
