  9
no_name:-229.852815447417
C     -0.37469     1.09304     0.10214
C     -0.22629    -0.25421     0.34523
H     -0.70022     3.34396    -0.23432
C      0.65301    -1.21306     0.97204
C     -0.40415    -1.55420    -0.25712
C     -0.54784     2.29331    -0.07204
H      1.73729    -1.11488     1.11820
H     -0.36701    -1.79467    -1.32832
C     -0.08477    -2.44983     0.83377
