 16
no_name:-383.956758887858
C      1.26322    -4.06288    -1.93942
C     -0.40743     2.08410     1.69897
C      1.68841    -5.17030    -2.22377
C      0.35683    -1.71176    -1.32776
H      2.06702    -6.14311    -2.47535
C     -0.91096     3.37113     2.01199
H     -1.70887     5.44845     2.55396
C     -0.53726     1.48205     0.48666
C     -1.33408     4.47381     2.30335
C     -0.01630     0.17370     0.19392
C      0.78345    -2.82376    -1.61939
H     -1.06354     2.01105    -0.31530
H      0.11972     1.55269     2.50144
C     -0.14483    -0.43175    -1.01965
H      0.50973    -0.35502     0.99621
H     -0.67181     0.09867    -1.82355
