  9
no_name:-192.484281268679
C      1.73846     1.38189    -0.73050
H     -0.54308    -0.29856     1.48258
C      2.72901     2.20758    -0.73268
C      0.73868     0.55396    -0.70064
H     -0.93606    -1.83797     0.66261
C     -0.27155    -0.28041    -0.66824
C     -0.98454    -0.73960     0.57849
H     -2.04971    -0.45736     0.53383
H     -0.61742    -0.66443    -1.63867
