 10
no_name:-193.075269180119
H      1.65793    -1.10712     0.72274
C      0.38396     0.92742     0.73298
H      1.00643     1.83333     0.76065
C      0.83135    -0.47273     0.39608
H     -1.54007     1.13345    -0.68741
C     -0.68732     0.59120    -0.27356
H      0.57616    -0.55652    -2.06074
C     -0.57426    -0.90761    -0.00892
H     -1.23343    -1.75913     0.13297
C      0.26560    -0.35624    -1.03782
