  9
no_name:-304.612621417057
C      0.99558    -0.21083    -0.41528
C     -0.55967    -1.77774     0.68789
C      1.22077     1.07085    -0.87364
C     -0.87128     1.75067    -0.20759
C     -0.32466    -0.49106     0.20842
C     -1.22484     0.61046     0.25937
C      0.31180     1.98216    -0.75920
C     -0.81827    -3.01194     0.90411
H      1.69195    -1.04969    -0.46410
