 14
no_name:-270.427226766878
C      2.89784     1.22254     0.77092
H     -0.43119    -2.17100    -0.13887
C      1.77107     0.80435     0.49996
H     -2.47599     0.17379    -0.58823
H      0.04453     0.26846    -2.04668
C     -1.49758    -0.18597    -0.26257
H      3.88380     1.58022     0.99874
C     -0.16246    -0.09766    -1.03769
H     -1.09884     1.26049     1.37376
C     -0.87347    -1.42512    -0.80967
H     -1.34844    -1.84143    -1.70356
C      0.51188     0.33979     0.21414
C     -0.77937     0.26393     1.02466
H     -0.80829    -0.43583     1.87901
