 10
no_name:-230.583814552993
C      0.73648     0.41324     1.06207
H      0.34079     0.18279    -2.33659
C      0.61671     0.29637     2.26578
H      1.71866     1.20865    -0.67515
H      0.51177     0.19295     3.32942
C      0.89644     0.56718    -0.33946
C     -0.98782    -0.86957    -1.01646
H     -2.77189    -2.25037    -0.62862
C      0.11362    -0.01559    -1.28338
C     -1.93726    -1.60155    -0.81696
