 12
no_name:-306.666448028113
H      3.38223     2.12050     0.57695
C      1.48238     0.86101     0.38170
C     -0.13840    -0.38869    -0.99939
C     -1.56985    -0.97725     1.16401
C     -1.93795    -1.38381     0.03641
H      0.46880    -0.13217    -1.87102
C     -1.30289    -1.16202    -1.17779
C     -0.45420    -0.21802     1.45937
H     -0.12507     0.14072     2.43568
H     -1.61881    -1.51432    -2.16163
C      2.48770     1.53265     0.49115
C      0.28798     0.07816     0.27468
