 13
no_name:-382.06237927388
C     -1.73206     0.43945     0.33024
H      5.76180    -0.90891    -2.04867
C      1.89254    -0.94587     0.45724
C     -4.16006     1.36347     0.24452
C      4.99845    -1.05811    -1.30801
C     -5.30685     1.79908     0.20312
C      4.12713    -1.22121    -0.47535
H     -6.31082     2.17942     0.16957
C      0.68966    -0.48515     0.41439
C     -2.90085     0.88476     0.28875
C     -0.50184    -0.03096     0.37482
C      3.13520    -1.43035     0.51778
H      3.42495    -2.03555     1.39134
