 15
no_name:-271.092215316328
C      0.20240    -0.29736     0.39919
H     -0.81525    -3.09189     2.60998
C     -0.20080    -1.36646     1.23515
H      1.64759     1.17305     1.25223
C     -0.52223    -2.28320     1.96749
C      1.46979     0.55132     0.35966
C     -0.37658     0.34992    -0.64555
H     -2.27995    -0.59616    -0.92309
H     -2.25403     1.15196    -1.30321
H      1.32425     1.19632    -1.80906
H      0.57836     2.36194    -0.67375
C      0.79571     1.29311    -0.84463
C     -1.67337     0.21372    -1.35558
H      2.39482     0.00459     0.11422
H     -1.51754    -0.00016    -2.42806
