  9
no_name:-192.478836939829
H      0.88003     1.27786     1.30024
C     -0.12838     1.31785     0.88090
C     -0.50798     0.47792    -0.11664
H      1.26859    -3.52863    -1.66470
C      0.30345    -0.55560    -0.58948
H     -0.84921     1.99974     1.33934
C      0.90385    -1.58227    -1.01390
H     -1.53542     0.53778    -0.50469
C      1.70200    -2.53190    -1.47955
