  9
no_name:-267.18042291493
C      0.43141     0.00575    -1.01591
C      0.31388    -0.55893     0.28862
C      0.79328     1.17034     2.13303
C      0.01059     0.34192     1.50916
C     -1.02827    -0.49279     1.05476
C      0.55542     0.46086    -2.13264
H      0.65891     0.86989    -3.12150
C     -2.11955    -1.17004     0.85870
H      0.92437    -1.44216     0.51341
