 14
no_name:-307.904512518276
H     -0.75325    -1.86916     1.87096
H     -2.67532     0.25870     0.68940
C     -1.75055    -0.30307     0.84886
H      0.39816     2.50822    -2.39878
C      0.70717    -0.11770    -0.21286
C      1.97170    -0.01173    -0.76799
H     -2.55682    -1.62096     2.30900
H      2.81471     1.37672    -2.29379
C      1.95106     1.05961    -1.69915
C     -1.68639    -1.31711     1.72277
C     -0.60734     0.12009     0.05910
H      2.83548    -0.63621    -0.53778
C     -0.15730     0.99847    -0.87379
C      0.67274     1.66649    -1.76248
