 13
no_name:-382.094017744616
C      0.90265    -0.52356     1.92066
C     -0.40063    -0.96302     1.62379
C     -1.03039    -0.63667     0.43933
C     -1.28071    -0.15765    -0.70267
C      1.73235     0.88202    -0.06369
C     -0.65899     1.18116    -2.75309
H      1.35087    -0.81442     2.87555
C      1.57948     0.25855     1.00545
H     -0.91903    -1.58278     2.36404
H     -1.01808     1.51981    -3.72801
C      1.39685     1.35150    -1.26758
C     -1.39956     0.39877    -1.89071
C      0.59271     1.47463    -2.21652
