  7
no_name:-191.205612975722
C     -0.01070     0.49641     0.56123
H     -0.45015    -1.40635    -2.13039
C      0.11793    -0.41547    -0.36181
C      0.25122    -1.33506    -1.28752
C      0.42558     1.14988     1.78859
C     -0.67092     1.63075     1.17691
H      1.07476    -2.06203    -1.25860
