 15
no_name:-233.610973049259
H      1.30143    -0.37483     0.48752
C      0.48683    -0.73361    -0.16386
H      0.41160     2.11812     0.03238
H      2.40137     1.13668    -1.58948
C      0.24843     0.27199    -1.28620
H     -0.49098    -0.06002    -2.03051
C      0.22613     1.77776    -0.99600
H      0.83306    -1.68378    -0.61218
H     -0.52598     2.37780    -1.52507
C     -0.74920    -0.97855     0.65552
H     -0.03525    -0.32024     2.54398
H     -1.61384    -1.37725     0.10783
H     -1.80457    -0.91195     2.49851
C     -0.87063    -0.72393     1.96115
C      1.32193     1.15693    -1.75530
