 17
no_name:-384.550388474627
C      1.04124    -0.59962     1.03837
H      1.90511    -2.33243     2.00357
H     -4.89213     0.75000    -3.01726
H      2.90482    -0.85363     2.11664
C      1.59615     0.35715     0.18865
C      1.87383    -1.23626     2.12477
C     -2.73580     0.87492    -2.23709
C     -3.88416     0.80807    -2.65233
C      0.99822     1.06488    -0.86923
C     -1.45883     0.94649    -1.77457
C     -0.31169     0.97523    -1.32058
H      1.43562    -1.04115     3.11853
H      1.63919     1.77597    -1.40402
H      2.64938     0.59418     0.36801
C     -0.30296    -1.02876     0.94604
H     -2.46364    -1.78941     0.86645
C     -1.44705    -1.44848     0.92254
