 12
no_name:-306.582806188235
H      2.07934     1.36346     0.07826
C      1.15935     0.78062     0.05999
C      0.68185     0.14795    -1.15860
C     -0.89019    -0.17048     1.33790
C     -1.24937    -0.75910    -0.02019
H      1.27436     0.27284    -2.06915
C     -0.45994    -0.59097    -1.22150
C      0.38941     0.58865     1.15921
H     -0.36210     0.73174     3.42139
H     -0.81731    -1.06917    -2.13233
C     -2.12758    -1.05225     0.90260
C     -0.27310     0.49054     2.36662
