 13
no_name:-344.659032228547
C      1.62610     1.29492    -1.26224
H     -3.53136    -0.93363     3.44230
C      2.78871     2.01702    -1.23739
C      0.58701     0.65082    -1.28703
H     -1.12268    -2.84273     0.40713
C     -1.02636    -0.93465    -0.41704
C     -2.23431    -1.44236     1.62805
H      4.73689     3.22522    -1.19678
H     -1.26777     0.07009    -2.22798
C      3.82481     2.65873    -1.21494
C     -1.42647    -1.78893     0.50241
C     -2.92423    -1.17501     2.58998
C     -0.62714    -0.08575    -1.34612
