 13
no_name:-269.818589511828
C      1.27564     0.82397     1.51611
H     -1.89144    -2.37405    -1.98660
H     -1.24776    -1.58029     0.24723
C      2.23634     0.50676     2.18618
H      0.63071     2.02472    -1.55276
C     -1.03374    -0.97263    -0.63806
H      3.08667     0.23150     2.78072
C     -0.37501     0.28795    -0.39461
H     -1.19010    -0.82099    -2.75583
C     -1.38915    -1.41200    -1.85687
C      0.11897     1.19171     0.72020
H     -0.62094     1.79032     1.27742
C      0.22502     1.38032    -0.77750
