 11
no_name:-231.128731385005
C     -0.60109     0.59966     0.07571
C     -0.26292    -0.77596    -0.49921
C      0.68063     0.30449    -0.70329
H     -1.39215     1.20534    -0.37585
H     -0.82047     1.21567     2.32285
C      1.03420    -0.78447     0.30974
H     -0.76521    -1.48931    -1.15439
H      1.17716     0.73439    -1.57457
H      1.82280    -1.51172     0.10752
C     -0.30277     0.62155     1.57190
C      0.70675    -0.24157     1.67209
