 11
no_name:-156.321482986387
C      1.13676     0.02026    -0.46569
C     -1.20953    -0.05266     0.54574
H      1.20755     1.11436    -0.35800
H      0.17368    -1.67521     0.49285
C     -1.69689     0.83454    -0.29566
H      0.76297    -0.18614    -1.48124
H     -2.65095     1.32495    -0.48797
C      0.20763    -0.57357     0.58943
H      2.15156    -0.39931    -0.38164
H      0.61203    -0.38956     1.60263
H     -1.89128    -0.47444     1.30897
