 15
no_name:-233.642788714779
H      0.81332    -1.17787     1.28998
C      0.38352    -1.19747     0.27529
H      0.58409     1.96854    -1.04836
H      2.20606    -0.15122    -0.41051
C      1.12237    -0.17970    -0.61258
H      0.99216    -0.42570    -1.68092
C      0.43591     1.15587    -0.32570
H      0.46813    -2.22988    -0.09713
H     -1.86034     1.39148    -0.00322
C     -1.07157    -0.69750     0.32621
H     -1.60881    -1.05126     1.22190
H     -1.63599    -1.04635    -0.55612
H      0.07389     2.45358     1.56602
C     -0.96051     0.82626     0.27144
C      0.08754     1.48497     1.06317
