 12
no_name:-381.325832076874
C      2.72069    -0.33839    -0.72928
C     -0.98565    -0.22516    -0.51160
C      3.31023     0.74327    -0.19589
C     -3.04688    -0.17056     1.05446
C     -4.01636    -0.13961     1.79301
C      3.86813     1.77475     0.32934
C      0.11849    -0.25045    -1.34429
C     -1.96026    -0.20077     0.23214
C      1.47619    -0.29475    -1.43395
H     -4.87306    -0.11085     2.44197
H      3.17966    -1.33801    -0.64164
C      0.71306    -0.26038    -2.63234
