  9
no_name:-192.448587069428
H      0.72976     1.52093     0.34771
H      0.75077    -0.96481    -1.24792
H     -1.83226     0.47978    -0.70566
C     -1.12218    -0.04305    -0.06259
C      0.19352     0.58234     0.42457
C      0.15560    -0.73392    -0.35915
C      0.34241    -0.78369     1.11089
H      1.20260    -1.05457     1.72555
C     -0.95438    -0.11516     1.41676
