 13
no_name:-307.20422942225
C     -1.10546    -1.00171     3.40900
H     -1.64034    -1.91479     5.45106
H      2.39906     1.40441    -2.12365
H      1.06827    -1.06392    -0.78114
C     -0.78845    -0.46406     2.20767
H     -0.15606    -0.00582    -3.43594
C      0.49544     0.18463    -2.58618
C     -0.18320     0.57764    -0.10676
C      0.69054    -0.08154    -1.10186
H     -0.58988     1.56165    -0.37411
C     -0.50431     0.04045     1.10393
C      1.52913     0.75530    -2.05513
C     -1.38955    -1.48772     4.49865
