 10
no_name:-193.090602661919
H      1.10038     0.24880    -2.02795
C     -0.84875    -1.20757     1.93310
H     -0.85454    -1.19118     3.02422
C     -0.32453    -0.72847     0.77385
H      1.54256     0.29765     0.50876
C      0.29210     0.53810    -1.33082
H     -0.66071     0.13783    -1.70623
C      0.58139     0.04439     0.04572
H      0.24518     1.64306    -1.36186
C     -1.44762    -1.64761     0.75476
