 17
no_name:-347.165923838537
C     -1.18855     0.60370     0.34098
C     -1.41117    -1.86148     0.44206
H      1.22604    -0.85170     1.37183
H     -2.52616    -3.85690     0.55928
H     -2.25558     0.83263     0.37384
H     -0.31022     2.46243    -0.40929
H     -0.01659     2.13643     1.30613
C     -1.99716    -2.92419     0.50498
C      1.49569     0.95570    -1.46599
H      1.27723    -1.35249    -0.32934
C      1.17610     0.85026    -0.04109
C     -0.67838    -0.64444     0.36779
C     -0.11487     1.65539     0.31432
H      2.03964     1.22493     0.53217
H      1.97768     1.11086    -3.69434
C      0.84162    -0.61755     0.36329
C      1.74805     1.03931    -2.64808
