 16
no_name:-346.467878702061
H      0.21231     1.38787     1.05309
C      0.19827     0.41006     0.55322
H     -0.37975    -4.57688     4.36351
H     -1.75038     3.59114    -2.25572
C      0.30847     0.35588    -0.79053
C     -0.04486    -1.68811     2.13878
H     -0.78228     0.80489    -3.38215
C     -0.69625     1.65401    -2.68681
C     -0.17078    -2.76723     2.97081
H      0.28376    -0.62346    -1.28270
C      0.06667    -0.72485     1.39135
C     -0.28080    -3.73070     3.71009
H      1.39212     1.48650    -2.24158
H      0.49419     2.47796    -1.07081
C      0.44360     1.55902    -1.67479
C     -1.55388     2.64660    -2.76551
