 13
no_name:-307.229200552055
C      0.94601    -0.04862    -0.07636
H      1.98842    -4.07099    -2.06134
C      0.01836     0.46122     0.73993
C      1.89581    -1.90674    -1.32577
H     -3.71041     2.45354     2.63219
C     -2.97695     2.04662     1.96182
C     -2.14552     1.58080     1.19201
C      1.94703    -3.05431    -1.71833
C      1.86099    -0.54736    -0.88339
C     -1.20414     1.05508     0.30997
H      2.66312     0.11217    -1.25302
H      0.20799     0.42117     1.82126
H     -1.41418     1.09935    -0.76384
