 13
no_name:-195.018164085018
H     -0.41685     2.12040    -0.17169
H      0.56930    -3.30618    -1.17621
H     -1.52877     0.36788    -1.44949
C     -0.36804    -1.25588    -0.80138
C      0.13369    -2.34098    -0.99992
H      0.21311     0.83554     1.91415
C      0.88612     0.88092     1.04115
C      0.10602     1.15126    -0.24330
H      1.42095    -0.08044     0.98311
C     -0.94370     0.06787    -0.56231
H      1.62902     1.67167     1.23152
H     -1.66648    -0.00014     0.27146
H      0.80128     1.23301    -1.09616
