 12
no_name:-231.769803711481
C     -0.84481    -0.19664     0.19661
C     -1.81279    -1.15712     0.68769
H     -3.09497     0.75068     0.38246
C      0.37120     0.16238    -0.16636
H      2.42593    -0.32772     0.53094
C     -2.25469     0.05918     0.41484
H      2.06623    -0.84600    -1.19528
H      1.21697     1.50617    -1.72449
C      1.78173    -0.20517    -0.35003
H      1.57639     2.02441     0.00172
H     -2.03554    -2.16407     1.03650
C      1.27070     1.20983    -0.66838
