 14
no_name:-233.05713276274
H      3.77375    -1.41664    -0.23891
H     -2.47288     0.03294     0.04521
H     -2.38184     0.87585    -1.51780
C     -0.05727     0.14640     1.71157
C      1.68671    -0.59545     0.21437
C     -1.86379     0.72516    -0.55813
C      2.79293    -1.03049    -0.03493
H     -0.51107    -0.76679    -1.36163
C      0.36921    -0.07851     0.45414
H      0.58844    -0.05981     2.56770
H     -1.05496     0.53908     1.91579
C     -0.46009     0.17882    -0.79221
H      0.11272     0.86756    -1.43919
H     -1.84019     1.69511    -0.03577
