 12
no_name:-306.610210203316
C      1.08282    -0.01903     2.20924
C     -0.85481     0.75649    -1.00520
H      1.58898     0.53849     4.37235
C      0.00688    -0.01197    -0.31283
C     -1.22049     0.47866    -2.35086
C      1.34774     0.28221     3.35699
C      0.88545    -1.12263    -0.18024
C      0.75362    -0.33144     0.88986
H     -1.82839     0.05437    -4.51735
C     -1.54436     0.25224    -3.50174
H      1.35183    -2.00312    -0.61813
H     -1.29331     1.63070    -0.51384
