  8
no_name:-117.067604299914
H      0.10572     0.40876     1.36315
C      0.61938    -0.12095     0.53427
C     -0.19652    -0.11207    -0.68714
C     -1.35131     0.32468    -1.13985
H      0.82815    -1.15062     0.87200
H     -1.68326     0.15188    -2.17102
H      1.59275     0.37311     0.37184
H     -2.04515     0.89134    -0.49367
