 13
no_name:-307.162360588972
C     -0.61290     1.61001     0.66134
C      0.41697    -0.53970    -0.25462
C      0.09760    -2.79715    -1.48563
H     -1.57266     1.61189     0.14326
H     -0.18701    -4.79308    -2.57614
H     -0.81167     2.86159     2.48425
H      1.57076     1.21694     0.14269
C      0.61975     0.72103     0.40455
H      0.83400     3.06897     1.66077
C      0.26342    -1.60209    -0.83521
C     -0.05714    -3.85625    -2.06783
C     -0.05876     2.44118     1.80956
C      0.03208     0.95670     1.76845
