  9
no_name:-267.300924481734
C      0.53104     0.25325     1.04023
C      0.67677    -0.22196    -1.36805
C      1.32015     0.01440    -0.10008
C     -0.59863    -0.17890    -1.26806
C     -1.54218     0.01888    -0.34842
H      2.41007     0.01553     0.01195
C     -0.86494     0.24996     0.89026
C     -2.26877     0.27353     0.86386
H      1.00827     0.43386     2.00522
