 11
no_name:-193.679755093554
H     -0.03761    -0.62946     1.73464
C     -0.08110    -0.18810    -0.43636
H      0.20437     1.68149     0.71867
H     -1.70916    -0.80177     0.95465
H      1.54625    -1.61650    -1.00225
C      1.06412    -0.65404    -1.22470
H      1.72370     0.06078    -1.73681
C     -0.57695     1.01887     0.33358
H     -1.46610     1.51611    -0.06509
C     -0.71910    -0.33711     0.92969
C     -0.38883    -0.71972    -1.72417
