 16
no_name:-309.100340324451
C     -0.10928     1.29895     0.44331
C      0.13100    -0.01746     0.52699
H     -1.32075     3.67291    -1.78422
H     -1.05936    -1.71683    -0.45375
C     -0.10608    -1.30962    -0.10516
H     -0.05057    -1.38216     2.36022
H      2.50973    -3.40424     1.08135
H     -0.76737     3.93905    -0.02167
C     -0.92656     3.24964    -0.85723
C      1.84816    -3.07856     0.27593
C     -0.64749     1.93909    -0.74598
H     -0.82429     1.28067    -1.60568
C      1.02755    -2.04601     0.44502
H      1.88274    -3.61579    -0.67411
H      0.12340     1.92710     1.30914
C      0.43740    -1.12768     1.41499
