 15
no_name:-345.889489539207
H     -0.66560     1.96473     2.51623
C      3.18380    -1.73735    -2.00376
H      5.14442    -2.89852    -2.26029
C      4.22546    -2.35667    -2.14037
C     -1.35472     0.89705     0.70402
C      0.96366    -0.42974    -1.71662
H     -1.93747    -0.25910     2.49958
C     -2.26427     0.53360     1.81727
C      2.01263    -1.04612    -1.85193
H     -2.07037     2.77449     1.63614
H     -3.34181     0.55042     1.61872
H     -0.76828     0.57002    -2.52021
C     -1.51042     1.85219     1.82751
C     -0.81440     0.59603    -0.42548
C     -0.25607     0.28356    -1.59001
