  9
no_name:-192.554168965747
H      0.94132     2.58162    -1.86317
H     -0.54159    -1.45567     2.97664
H     -2.03262    -1.77837     1.88978
C     -0.49873    -0.60294     1.05107
C      0.56895     0.78820    -0.82316
C     -1.04956    -1.30964     2.01607
C      1.11680     1.50221    -1.78448
H      1.76573     1.04107    -2.53831
C      0.03599     0.09357     0.11516
