 16
no_name:-309.108540242751
H     -0.20357     3.20835     0.88935
C     -0.52965    -1.72030    -1.14009
C      0.76558     1.31868     0.45654
C     -0.53455    -0.69365    -0.47789
C      0.70860     2.82670     0.40220
C     -0.53620    -2.87157    -1.88442
H     -0.54243    -4.79760    -3.12764
H     -0.25516     1.13145     2.43445
H      0.73385    -0.34755     1.95085
C     -0.52025     0.51078     0.29940
H      1.63778     0.86920    -0.03008
C     -0.53682    -3.89494    -2.54674
H      1.57403     3.27222     0.92049
C      0.22383     0.56422     1.63082
H     -1.44331     1.10077     0.24582
H      0.71331     3.19055    -0.63818
