 12
no_name:-306.529682127837
H      2.99080     0.56096     2.08246
H     -2.84372    -1.60454     1.23960
C     -0.15829     1.22103    -1.28152
H     -1.11121     1.76065    -1.34391
C      0.43140    -0.19126    -1.73058
C     -1.02790    -0.55571     0.33164
C      2.16843     0.43640     1.40303
C      0.11773     0.11503    -0.27302
C      1.24708     0.29867     0.63154
C     -1.99209    -1.11120     0.80874
H      0.07911    -1.09084    -2.25003
C      0.82983     1.05471    -2.29330
