  8
no_name:-229.272724268327
H      2.15785     0.33787    -0.03938
C     -0.63032    -0.74352    -1.51988
C     -1.51713    -0.43350    -0.57713
H      0.51537     0.90756     1.70091
C     -1.18835     0.12061     0.52396
C      0.14330     0.43365     0.78970
C      0.61582    -0.50438    -1.38832
C      1.10998     0.09874    -0.23392
