 13
no_name:-307.292830125499
H     -1.51634    -0.55413    -1.60701
H      2.54863    -0.96838    -0.21086
H      0.76996    -1.53385    -1.86001
C      0.54809    -0.85816    -1.03083
C     -0.72315    -0.31707    -0.89569
H      2.06426     0.56570     1.69074
C      1.54966    -0.53892    -0.10060
C      1.27797     0.32550     0.97144
C     -1.01857     0.56577     0.18253
C      0.01095     0.87341     1.11787
C     -2.29623     1.12973     0.31525
C     -3.50451     1.46396     0.56163
H     -0.22134     1.54646     1.94512
