 10
no_name:-267.884602654101
C     -1.19105    -0.61812    -0.50991
H     -1.88026    -1.46190    -0.59788
C     -0.69273     0.13816     0.61523
H      0.04988    -0.33441    -2.41472
C     -0.23918    -0.07844    -1.39270
C      1.53032     0.87928     0.40354
C     -0.20093     0.05734     1.91000
C      0.37028     0.71049    -0.34767
C      1.10649     0.30762     1.63956
H      2.54002     1.14048     0.08839
