 10
no_name:-230.503727442498
H      2.23576    -1.51548     1.12672
C     -1.26152     0.77403    -0.69288
H     -0.40592    -1.07008     1.57487
H      1.14970    -0.98279    -1.30533
H     -3.20221     1.43567    -1.72021
C      1.69220    -0.60616     0.86060
C      1.08225    -0.34625    -0.41248
C     -2.29352     1.12752    -1.23970
C      0.28692    -0.39060     1.05976
C     -0.06249     0.44826    -0.05515
