 13
no_name:-344.615073278952
C      0.81263     1.15770    -0.19138
C     -1.81303    -0.45888    -0.99942
C      0.38905     1.94014    -1.21615
C     -0.77355     1.57637    -1.86961
H      1.94882    -0.09251     1.84429
H     -2.66141    -1.13666    -1.12930
C     -0.91516    -0.73641    -0.00993
C      0.33339    -0.06113     0.45740
H      0.70770    -1.48712     2.00482
C      1.59353     2.29517    -0.52485
H     -1.13371    -1.63592     0.57744
C      1.03529    -0.57737     1.49416
C     -1.64929     0.69917    -1.85553
