 17
no_name:-309.832805097418
C     -0.14844    -2.44392    -0.11527
H     -2.24054    -1.95415     0.14752
H      1.99590    -2.61180    -0.37975
H      2.37931    -0.16432    -0.38306
H     -0.31658    -3.52351    -0.11390
C     -1.02232    -0.18494     0.03046
H     -1.87645     0.48553     0.14496
C      1.36576    -0.55837    -0.26682
C      1.14964    -1.92924    -0.26443
C     -1.22737    -1.55975     0.03147
C      0.28646     0.36363    -0.11878
H      1.56569     2.08680    -0.25284
H     -1.11552     2.66634     0.95591
C     -0.53076     2.80181     0.02666
H     -1.26398     2.76850    -0.80248
H     -0.10216     3.81419     0.04734
C      0.52922     1.76027    -0.12338
