 13
no_name:-269.85924294064
C     -0.81799     0.49275     1.69776
H     -1.21039    -0.39033    -1.84359
C      0.48002    -0.20131    -0.50729
H      0.36518    -0.19812    -2.66974
H      2.20968    -1.07322    -1.38333
H     -2.63903     1.46713     4.72175
C     -0.23289     0.11753    -1.80269
C     -1.49789     0.85671     2.82910
H      2.18164    -1.01487     0.48793
C     -0.19961     0.16155     0.69529
H     -0.42882     1.19933    -1.88278
C      1.69010    -0.79564    -0.46230
C     -2.10651     1.18048     3.83459
