 11
no_name:-305.992766133542
C      1.84841    -0.16928    -1.18880
H      1.96699    -3.36758    -3.06639
C     -0.10712     0.59329     0.39588
C      1.87974    -1.39794    -1.90192
H     -3.72993     2.06366     3.36792
C     -2.94122     1.73487     2.71730
C     -2.03169     1.36908     1.97121
C      0.85419     0.21040    -0.38686
C     -1.04548     0.96414     1.16010
C      1.92690    -2.44338    -2.52085
H      2.71228     0.50264    -1.31777
