 13
no_name:-307.248398852
C     -3.96396    -1.27564     3.00267
H     -4.73131    -1.52756     3.71019
H      2.73046     0.92547    -2.90527
H      2.39474     0.12711     0.07185
C     -3.07590    -0.98477     2.19941
H      0.35522     0.50577    -2.27263
C      0.66421     0.27511    -1.24091
C     -1.21006    -0.36654     0.48836
C     -2.11605    -0.66544     1.32066
H      4.07438     0.74352    -1.62153
C      2.08842     0.35617    -0.95438
C      3.01256     0.69216    -1.87353
C     -0.27456    -0.05483    -0.35673
