 11
no_name:-305.880311330209
C      1.74559    -0.13958     0.28103
C      1.43597    -1.14710    -0.58700
H      2.73783     0.07467     0.67621
H     -2.35837     1.35937    -0.44790
C     -1.60253     1.06544     0.29184
C     -0.65239    -0.03337    -0.02253
H     -2.01082     1.02679     1.30968
C      0.62403    -1.90494    -1.39259
C      0.53806     0.59717     0.51250
C     -0.27271    -1.02653    -0.92604
C     -0.20700     1.74764     0.16366
