 17
no_name:-309.79267397796
H      0.24075     0.00175     3.08755
C      0.39594    -0.28361     2.04677
C     -0.22741     0.38008     0.91807
H     -1.94081     0.84003    -1.83226
H     -1.53595     1.90206     0.13113
H      0.48046    -0.78022    -2.33570
C     -0.89931     0.94998    -2.18554
H     -0.91448     0.91384    -3.28416
C     -0.00749    -0.11051    -1.61811
H      1.79405    -1.99485     2.21170
H     -1.34522     1.84327     1.98081
C      1.20605    -1.32643     1.58050
C     -1.08296     1.43229     1.00180
C      1.14818    -1.38313     0.18207
C      0.26839    -0.33994    -0.30425
H      1.67449    -2.09037    -0.45966
H     -0.57265     1.96217    -1.88659
