 12
no_name:-194.35366148347
H     -0.43470    -0.39945     2.03361
H     -1.48153     0.90715     0.17491
C      0.29413     1.05192    -1.03509
C      1.52597     1.49336    -1.18186
H     -1.63568    -1.57928     0.11370
H     -0.04355    -1.67442    -0.80643
C     -0.65176    -1.13922    -0.07177
H      1.88611     1.93336    -2.11984
C     -0.55470     0.37714    -0.07577
H      1.14617    -0.51783     1.09748
C      0.05573    -0.45405     1.05751
H      2.25649     1.44963    -0.35514
