 14
no_name:-233.053897758327
H      1.10538     2.24050     0.80254
H      0.73089     0.69774    -2.33561
C      1.33515     0.64720    -1.41216
H     -2.64985    -1.30484     2.72854
H      2.00892    -0.22079    -1.52707
C      0.45738     0.49112    -0.19918
C     -1.29273    -0.95854     0.92351
C     -2.01137    -1.14146     1.88105
H      0.21741    -1.63633    -0.36884
H     -1.05011    -0.70829    -1.14786
C     -0.42727    -0.74650    -0.23323
H      1.95185     1.55562    -1.35469
H     -0.19256     1.22099     1.68451
C      0.45520     1.36142     0.81610
