 15
no_name:-271.149241755221
C      0.18998     1.24811    -1.01536
C     -0.64828     1.05364     1.27804
H      1.22944    -2.08409    -0.88489
H     -1.55872    -0.76846     1.89135
H     -0.14353    -0.53120    -2.24584
H      0.45769     1.86934    -1.87505
C      0.08515    -0.20579    -1.22564
H     -0.94233     1.58637     2.18652
C     -0.95955    -0.25620     1.13288
C     -0.54368    -1.02904    -0.04995
H     -1.17595    -1.88256    -0.31592
H      0.06014     2.89654     0.31591
H      1.63983    -0.71943     0.29012
C      0.91443    -1.15524    -0.40275
C     -0.06377     1.81789     0.18661
