 15
no_name:-308.469215706136
H     -0.39831    -2.62143    -0.17248
C      0.82670    -0.21297     1.57514
C      0.25507     0.15548     0.44611
H     -1.76105     0.99744    -1.52318
H     -0.59317     2.21100     0.31843
H     -1.23676    -2.16934    -1.78623
C     -0.69576     0.74421    -1.40436
H     -0.20729     0.81469    -2.38885
C     -0.43455    -0.56035    -0.65673
H      2.40891    -1.23383     4.68963
H      0.96442     2.01860    -0.54385
C      1.39849    -0.59023     2.70613
C      0.03311     1.50816    -0.25276
C     -0.70471    -1.85078    -0.88546
C      1.93944    -0.95229     3.76635
