 10
no_name:-230.497017112608
C      0.62680    -0.32894     0.17929
H      1.33589     1.57500    -1.33184
H     -0.71139     1.47125     0.42245
C     -1.09429    -2.17308    -0.58710
H      0.62244     1.29735     1.67611
C     -0.29712    -1.32019    -0.25628
C      1.34019     1.00496    -0.39347
C      0.27810     1.05516     0.66515
H     -1.79319    -2.93114    -0.88900
C      2.02826    -0.21729    -0.15404
