  9
no_name:-192.519969788737
H      3.39469    -0.22046     0.30651
H     -1.91346     0.78306     1.06748
H     -1.74996     1.27495    -0.70223
C     -0.27306    -0.32006    -0.04839
C      1.11687    -0.30480     0.08510
C     -1.53770     0.51507     0.06693
C      2.32628    -0.25187     0.20265
H     -1.91543    -1.83472    -0.61966
C     -1.39972    -0.92546    -0.32035
