 11
no_name:-193.749539494758
H      0.00988     0.29693    -2.21342
C     -0.83621    -0.25186    -1.77379
H     -1.76506     0.31034    -1.96855
C     -0.09767    -0.25124     0.85730
C      0.96241     0.35082     1.69224
H      0.54400     0.68663     2.65439
C     -0.70077    -0.46019    -0.31740
H     -0.94809    -1.22498    -2.27908
H      1.47611     1.18781     1.19592
H      1.71046    -0.42623     1.92488
C     -1.23839    -1.09332     0.83197
