 11
no_name:-268.571447494887
C      0.34220     0.53552    -2.38824
C     -0.56033     0.08406    -1.36467
H      2.93061     0.59925     0.72417
C      0.88778     0.10900     0.42514
C     -1.31951    -0.35868    -0.19481
C      0.73114     0.36084    -1.01692
C     -0.45830    -0.34327     0.86412
H      1.99116     0.03641     2.24575
H     -2.37172    -0.64641    -0.16983
H     -0.70179    -0.61895     1.89381
C      1.99648     0.25572     1.17395
