 11
no_name:-305.991966533275
H     -0.15228     2.00316     0.84357
C     -0.26261     0.92645     0.72312
C      0.24145     0.17766    -0.37766
C     -0.90479     0.08296     1.60045
C     -0.75909    -1.43284     0.90323
C     -0.05691    -1.20921    -0.25881
H      2.10157     1.66549    -3.22820
C     -1.36608    -1.09892     2.06195
H      0.23003    -1.96987    -0.98342
C      0.95869     0.74896    -1.47061
C      1.56348     1.23474    -2.40415
