 17
no_name:-309.632182647658
H      3.09522     1.79277     0.16560
C     -1.00802    -0.20214     0.28517
H      0.24484     0.63136     1.86375
C      2.72815     0.92065     0.73523
H      2.60219     1.22477     1.78543
H      0.01460    -1.67037    -1.05998
H     -1.76866    -2.06044    -0.75825
C     -0.98949    -1.30024    -0.83917
H      1.50279     0.07090    -0.89356
H     -2.40600     0.28917    -1.43526
C     -2.12377    -0.23918     1.15117
H      3.52789     0.16041     0.68982
C      0.28998     0.30666     0.81924
H     -0.62423     0.69484    -1.73085
C     -1.35862     0.05932    -1.23022
C     -3.08268    -0.45887     1.96811
C      1.45080     0.39587     0.15445
