 12
no_name:-157.00436641826
H     -0.57309    -0.68450     1.76577
H     -1.32840     0.22678    -1.08579
H     -1.18023    -1.75555     0.48275
C      0.74100    -0.06815    -0.64621
H      1.70850     1.74111    -0.09772
C     -0.65850     0.25702    -0.20559
C     -1.19087    -0.71694     0.85383
C      1.79925     0.73880    -0.53113
H     -2.22808    -0.47339     1.13478
H     -0.69437     1.29111     0.17796
H      2.79418     0.43269    -0.86716
H      0.88191    -1.06665    -1.08345
