 11
no_name:-305.943289481865
C      1.42597     0.75285     0.28422
C     -0.70894     0.30662    -1.54725
C      1.47699     0.03553     1.49756
H      2.16231     1.49346    -0.02572
C     -1.44366    -0.63858    -0.90738
C      0.02232    -1.03314     1.47706
H     -2.36313    -1.17403    -1.14627
C      1.06247    -0.83174     2.39431
H     -0.80027     0.83005    -2.49800
C     -0.47686    -0.66106     0.28265
C      0.29509     0.33287    -0.39121
