 17
no_name:-309.679769259808
H     -1.43197     3.41127     0.42083
H      1.85650    -1.59728     0.59297
C     -1.09943     1.26379     0.86773
C     -0.52447     0.27015    -0.16071
H      1.15000     0.44591    -1.52604
H     -1.66630     1.05152     1.77689
C     -0.08504    -2.02523    -0.25136
H     -0.23429    -3.10799    -0.24911
H      0.28207     2.87135     0.01131
H      1.59912     0.75942     0.15979
C      1.28115    -1.38544    -0.32779
C     -0.76374     2.57504     0.18546
H     -2.13317    -1.32987    -0.06277
C     -1.06579    -1.11759    -0.15594
H      1.88510    -1.78363    -1.16087
C      0.97389     0.12565    -0.48641
C     -1.38136     1.43060    -0.54565
