 14
no_name:-270.389174070923
C      2.21866    -1.00294    -1.15282
C     -0.96461     0.41380     0.46043
H      2.65503    -0.02149    -1.39544
H      0.78375     1.25442    -0.44045
H      2.12853    -1.58065    -2.09125
C     -2.96399     0.51191     1.13959
H     -1.52941     2.12318     1.84590
C      0.89768    -0.87395    -0.47047
C      0.29005     0.31499    -0.16463
H      2.94170    -1.55490    -0.52456
H      0.38056    -1.79757    -0.18468
H     -3.98711     0.57121     1.50615
C     -1.82706     1.37846     1.08722
C     -1.93557    -0.46053     1.12415
