 10
no_name:-267.888110996617
H      0.29681     3.12097     3.50799
H     -0.26584    -2.62284    -4.14163
C     -0.00800    -0.14883     0.11397
C     -0.07548    -0.79675    -1.00031
C      0.12765     1.14338     2.42961
C      0.23307     2.47658     2.63027
C      0.05862     0.49812     1.20296
C     -0.14500    -1.46157    -2.14399
C     -0.20959    -2.08426    -3.21467
H      0.09173     0.49550     3.32759
