  7
no_name:-116.462985948896
H      0.74379     1.06421    -1.50497
H     -0.04572    -0.57394    -1.77766
C      0.67645    -0.24372     0.34794
H     -1.39512     0.69121     0.72792
H      1.44774    -0.71577     0.95165
C     -0.48415     0.33049     0.25656
C      0.27085     0.18283    -1.04076
