 17
no_name:-309.771572583737
C      0.03299    -0.78216    -0.30811
H      2.46222    -2.32775    -2.22708
H      0.06438    -2.38841    -1.72030
C      0.24085     1.71859     0.22476
C     -1.67240     0.17769     0.92415
H     -2.66893     0.39306     1.31313
C     -1.36586    -0.76982    -0.02586
H      1.67469     0.13311     0.92677
H     -2.09035    -1.41177    -0.53225
H     -0.30233     1.24208     2.35763
C     -0.44477     0.91928     1.32199
C      0.69564    -1.64431    -1.21956
H      2.70458    -0.89578    -1.05577
H      0.92228     2.51463     0.53858
C      0.67679     0.29126     0.50876
H     -0.31646     1.91797    -0.69532
C      2.02824    -1.62126    -1.51597
