 17
no_name:-347.187192012208
C     -1.95823    -1.67587     0.85250
C     -0.40628     1.18434    -0.86758
H     -2.59867    -3.34138     1.98484
H      3.28879    -0.30089    -0.16381
C      0.71232     1.93878    -0.97108
C      1.81615     1.39114    -0.12887
C     -0.20194     0.08649     0.08391
H     -3.87375    -2.56887     0.85323
C     -2.85232    -2.57030     1.24919
H      2.50473     2.06643     0.38714
H     -1.33662     1.32953    -1.41788
C     -1.10581    -0.81425     0.47534
H      1.46905    -0.11520     1.57247
H      0.82397     2.81637    -1.61113
C      1.22715     0.16407     0.54488
H      2.01362    -0.38241    -1.49718
C      2.29987     0.00687    -0.51575
