 10
no_name:-267.864189595047
H      2.18061     1.25092    -0.65629
C      0.08195    -0.75680     0.66841
C      1.46057     0.56764    -0.20641
C     -0.79598    -1.59519     1.21676
H     -2.04149     0.51285    -0.86253
C     -1.68822    -2.36325     1.72807
C      1.52607    -0.45222     0.69734
H     -0.88846     1.74198    -1.70045
C     -0.01028     0.37722    -0.33786
C     -1.03421     0.91109    -1.00664
