 13
no_name:-381.94348453451
H      3.36517     2.13574    -1.16251
C      0.88188     0.20432    -0.32552
C      2.85936     1.18092    -1.07048
H     -5.97300    -0.64757     2.62282
C     -0.30153     0.06413     0.18357
C     -3.87141    -0.37956     1.71939
C     -1.49775    -0.08329     0.69736
C      2.36611     0.23335    -0.04563
C     -4.99315    -0.52500     2.19996
C      2.93309    -0.28804    -1.30973
C      1.67937     0.44945    -1.58456
H      3.52812    -1.11070    -1.69071
C     -2.64415    -0.22459     1.19199
