 19
no_name:-348.517280362227
C      0.06206    -2.99319     0.06541
H     -2.05381    -2.72293     0.43086
H      2.19207    -2.93256    -0.30635
H      2.29408    -0.45521    -0.37842
H      0.01236    -4.08439     0.09824
C     -1.03705    -0.83637     0.21029
H     -1.95248    -0.26019     0.36079
C      1.33677    -0.95347    -0.20086
C      1.28001    -2.34790    -0.16057
C     -1.09576    -2.22794     0.25116
C      0.18272    -0.16793    -0.01848
H      1.32375     1.66724    -0.23085
H     -1.71266     1.86254     0.19319
C     -0.68174     2.20428     0.04038
H     -0.83830     4.17943     0.89839
H      0.57056     3.95402    -0.17570
C      0.30269     1.29715    -0.07430
C     -0.48742     3.68764    -0.02672
H     -1.07253     4.13080    -0.85274
