 11
no_name:-231.167709972908
H      3.66670    -0.88766    -1.23638
H     -2.34645    -0.37373     1.24100
C     -0.35403     0.59923     0.90435
C     -1.77643     0.21235     0.49711
H     -2.41650     1.04055     0.14185
C      1.52488    -0.45028    -0.56001
C      2.66301    -0.68270    -0.91405
C      0.19416    -0.18261    -0.13507
H     -1.41559    -1.24599    -1.40120
H      0.07105     1.22864     1.68644
C     -1.07428    -0.59969    -0.59231
