 12
no_name:-306.575122543018
C      0.51935    -0.31597     0.85393
H      2.69077    -1.17621     2.96024
H     -3.51978     1.35186    -3.65854
H      2.71988    -0.32705     0.47982
C     -0.37452     0.02012    -0.16735
C      1.85676    -0.57838     2.56771
C     -2.04144     0.72797    -2.02027
C     -2.82629     1.05941    -2.89220
C     -1.16017     0.35573    -1.04422
C      1.89482    -0.10752     1.17452
C      0.70835    -1.30391     1.80621
H      1.45167     0.11705     3.31186
