 12
no_name:-306.598816342327
C      1.41055     0.52564     2.53621
H      0.23392    -1.71560    -2.26364
C     -0.54993    -0.12789    -0.86812
H      2.53039     0.91850     4.50006
C     -0.46041    -0.93139    -1.95947
H     -2.27794    -0.43243    -3.50183
C      2.00578     0.73589     3.58124
C     -1.72272    -0.28182    -2.57597
C      0.15543     0.07308     0.31187
C      0.74423     0.29401     1.36887
C     -1.85211     0.53206    -1.51839
H     -2.53960     1.31798    -1.20518
