 13
no_name:-344.648221444353
H      2.80035     2.29389     1.43299
C      1.34839     1.14432    -0.01199
C     -0.35173    -0.21492    -1.16129
C     -1.39660    -0.97782     1.17125
C     -1.88132    -1.38457     0.08797
H      0.10844     0.12345    -2.09373
C     -1.45919    -1.08483    -1.20044
C     -0.31722    -0.12872     1.32444
H      0.12062     0.23677     2.25544
H     -1.88939    -1.44524    -2.13642
C      2.30307     1.89620     0.54710
C      0.20963     0.25429     0.05556
C      2.25683     1.84479    -0.86322
