 13
no_name:-269.837349484487
H      3.30735     0.78150     1.08525
H     -1.95549    -0.97254     0.28877
C      0.15192    -0.77944    -0.11449
C      0.10790    -1.65478    -1.13453
H     -0.83996    -2.09518    -1.45509
H     -1.89549     3.27632     0.32546
H      1.01403    -1.94682    -1.66960
C     -1.41933     1.05174     0.53094
C      1.38071    -0.18809     0.32273
H     -0.96891    -0.62250     1.71868
C      2.39961     0.32696     0.73549
C     -1.66967     2.23089     0.41860
C     -1.10441    -0.37261     0.65083
