 13
no_name:-344.567663458802
H      1.92912     1.35621     2.16002
C      0.00711     1.38734    -0.85548
C      1.06726    -0.40827     1.12260
C     -0.34522    -1.77546    -0.62667
C      0.00037    -1.02018     0.58538
H     -0.33991     2.46954     1.14436
C     -0.98120    -0.97394    -1.53499
H     -0.12773    -2.83694    -0.75542
H     -1.39217    -1.27945    -2.49634
C     -0.94497     0.38421    -0.97305
C      1.23183     0.89809     1.46244
C      0.08013     1.52970     0.77531
C     -0.73940     0.32018     0.43950
