 15
no_name:-345.869796907869
C     -0.83429     2.70018     1.96378
C      0.77208    -2.56625    -1.57833
H     -2.72382     3.33424     3.09424
C      0.31384     2.31501     1.27119
C     -0.12492    -0.60279    -0.31477
C     -1.84095     3.03209     2.56179
H     -1.25357    -2.27986    -1.10268
C      0.95977     1.43737     0.47116
H      1.86755    -0.01942    -0.83811
H     -1.01248    -0.28250     0.24254
C     -0.23997    -1.87077    -1.03084
H      1.81164    -2.23197    -1.51291
C      0.95482     0.21621    -0.28147
H      0.58901    -3.50739    -2.10274
C      1.66598     2.59173     0.89668
