 16
no_name:-346.518262045524
H      1.06903     1.43354     1.23464
C      0.56610     0.59666     0.73563
H     -0.64473    -4.55869     4.10714
H     -1.24304     1.35847    -3.06095
C      0.22277     0.73964    -0.62604
C      0.06350    -1.56020     2.13712
H      0.34451     0.68781    -3.53124
C     -0.28530     0.97177    -2.66934
C     -0.19861    -2.67592     2.86983
H     -0.80956    -1.06793    -1.52827
C      0.30333    -0.54171     1.47924
C     -0.43744    -3.67790     3.52932
H      1.46557     2.14301    -1.83410
H     -0.12802     2.81523    -1.36142
C      0.41673     1.88951    -1.60903
C     -0.39422    -0.05801    -1.56897
