 14
no_name:-233.038717333652
H      2.10578    -0.97125    -0.16751
H      1.25928    -1.52717     1.28409
C      1.16083    -1.41279     0.19138
H      1.05024    -2.41158    -0.25537
H     -1.59399     2.23348     1.08430
H     -1.87295    -0.22334    -1.11433
H     -1.10922    -1.92185    -1.31177
H     -0.72044     2.79961    -0.43377
C     -0.00506    -0.51876    -0.14620
C     -1.05175    -0.91131    -0.89821
C     -0.69533     2.14140     0.45119
H      1.46011     2.10939     1.67698
C      0.03414     0.82701     0.38082
C      0.62613     1.76489     1.07101
