 10
no_name:-155.727656198192
C      0.73145     0.33810    -1.02087
H     -1.12956    -0.28466     1.90380
C      0.40480    -0.16824     0.36226
C      0.88079     1.19993    -0.05899
H     -1.33599    -1.45853     0.58473
H      1.14170     2.20362     0.26984
H      1.13470    -0.83943     0.84993
H     -1.72645     0.26113     0.31345
H      0.77772     0.09730    -2.08081
C     -1.02342    -0.42468     0.81385
