 18
no_name:-385.256764538441
C      0.15633    -1.45277    -1.51165
C      0.24748    -0.61917    -0.62128
C     -0.74307     1.34774     0.69938
H     -0.89847    -2.39493    -3.11796
H     -2.16874     0.80052    -0.77570
C     -1.91694     1.46722     0.05380
H      1.92732    -3.38245    -2.32970
C      0.97828    -3.32638    -2.86932
H      0.81212    -4.03541    -3.68385
H     -2.64708     2.22920     0.33986
H      1.61969     2.07341     2.96543
C      1.34663     0.57621     1.28929
C     -0.24955     2.15126     1.82506
C      0.32568     0.35020     0.39856
C      0.98488     1.68831     2.16635
H     -0.80136     2.97045     2.28505
H      2.27944     0.01467     1.33456
C      0.03983    -2.41442    -2.54834
