 13
no_name:-269.828792594812
H      2.54551     3.03395     2.46284
C     -0.65956    -2.27099    -1.03783
C     -0.81179    -0.80446    -0.66387
C     -0.21837     0.25954     0.00713
H      2.69889     1.23027     1.98481
C      0.33718     1.16429     0.61367
H     -0.80016    -3.03943    -0.26040
C      0.95169     2.24297     1.30272
H      0.40966     3.19732     1.29238
H      0.07578    -2.55361    -1.80859
H     -2.73301    -1.21235    -1.87796
C     -1.77634    -1.33313    -1.37552
C      2.12913     2.16264     1.95120
