 14
no_name:-382.661944157657
C     -1.81232    -1.07834    -1.07184
H     -3.33428    -0.21737    -2.35574
C      0.98193     1.48379     0.37708
H      2.70169     0.42866    -0.26771
C     -0.71967    -1.40888    -0.47998
C     -2.64844    -0.11566    -1.51015
H      1.60756    -1.33184     1.89895
C     -2.30814     1.14090    -0.91424
H      2.68028     0.74820     1.46871
C     -0.12564     1.89486     0.05371
C      2.03670     0.48160     0.61633
C      1.36452    -0.87320     0.93232
C      0.37794    -1.36079     0.19506
C     -1.43107     1.82177    -0.37557
