  8
no_name:-191.916203034499
H      1.78515     1.77233    -1.51468
C      0.79867     0.22666    -0.42018
H     -2.86922    -1.63051     2.24841
C     -1.15122    -0.75387     0.99436
H      2.68249     0.12703    -1.42083
C      1.81166     0.73702    -1.15928
C     -2.07335    -1.22280     1.65392
C     -0.13831    -0.24458     0.25818
