 12
no_name:-381.407437387232
C      1.99479    -0.26580     0.61990
C     -5.43225     0.35021    -1.41492
H      5.20359    -1.04442     0.70110
C      4.49608    -0.46219     1.30295
C     -6.67450     0.46807    -1.73612
C     -4.17893     0.24336    -1.07058
C     -1.71007     0.03868    -0.39404
H      4.87692     0.03576     2.20231
C      3.22910    -0.36397     0.95687
C     -2.95353     0.14031    -0.73397
C      0.75907    -0.16679     0.28192
C     -0.47969    -0.06462    -0.05855
