  9
no_name:-267.3147897084
C     -0.08990    -0.34029    -0.15060
C     -0.33531    -1.33146    -0.92136
C      0.15658     0.65182     0.61859
C     -0.58683    -2.36376    -1.71916
C      0.41423     1.68205     1.41712
C      0.65740     2.64199     2.15865
C     -0.82371    -3.32416    -2.46215
H      0.86975     3.47470     2.80257
H     -1.02740    -4.15982    -3.10504
