 10
no_name:-305.251405441347
C     -0.64457    -1.61222    -0.00182
C     -1.62451    -1.74025     0.84249
C      0.83815     0.56936    -0.40482
H      2.11244     2.03044     0.40371
C     -2.58715    -1.79021     1.70667
C      0.38005    -0.65240    -0.52038
C      1.30569     1.78619    -0.29992
H      0.91000     2.60592    -0.91400
C      0.29086    -1.96958    -1.01377
C     -3.54705    -1.84101     2.56971
