 10
no_name:-230.504400201678
C      2.09012    -0.27234     1.03869
H      3.05691    -0.41644     1.48661
C     -0.29159     0.07047    -0.04324
C     -2.48904    -0.66749     1.20800
C     -1.41245    -0.31295     0.60781
H      0.27469     0.11304    -2.11219
C      0.98559    -0.12042     0.55372
H     -1.35735     0.79629    -1.77174
H      0.13896     1.70866    -1.35793
C     -0.32712     0.70971    -1.40594
