 13
no_name:-381.865832448768
C      0.60861    -1.39768    -2.09551
C     -0.95221    -0.60294     1.13741
C      0.09396     1.83160     1.53475
H      1.20090    -2.15497    -4.17136
C      0.02222     0.51811     0.99962
C      0.24071    -0.92855    -0.81554
C      0.92533    -1.79761    -3.19643
H      0.23393     3.93163     2.43099
C     -0.80958     0.01269    -0.28060
C      0.12311    -1.54547     0.58482
C      0.16929     2.94315     2.01480
H     -1.87647    -0.72220     1.70975
C      1.04638    -0.49165     0.43886
