 19
no_name:-348.441658963862
C      0.76790     2.06426    -0.26498
H      1.07609    -1.03213    -2.41307
H     -1.79483    -2.92271    -0.15665
H      0.27235     4.09575     0.11094
C     -0.73497    -2.62635    -0.03224
C      0.49245    -1.37012    -1.55563
H     -0.98494     0.32922     1.92240
C     -0.61152    -1.21365     0.47803
C      0.11301    -0.48877    -0.42863
C      0.00823    -2.61047    -1.34066
C      1.13409     3.47322    -0.18412
H      0.12323    -3.47747    -1.99214
H     -2.29451    -0.87690     1.78319
H      1.49873     3.84719    -1.15551
C      0.46241     0.88854    -0.33305
C     -1.19854    -0.73782     1.76355
H      1.93364     3.63978     0.55811
H     -0.79590    -1.30148     2.62449
H     -0.30494    -3.35490     0.68269
