 15
no_name:-308.483835482138
C     -1.51265    -0.50852     0.93533
C      1.02575     1.13914    -1.11792
H     -3.72199    -1.97008     1.63445
H      4.15649     2.85446    -2.06094
C      2.20950     1.78683    -1.46589
C      3.24772     2.35562    -1.78176
C      0.72393     0.72564     0.21263
H     -2.95773    -3.64312     1.31292
C     -1.70724    -1.96134     0.94935
H      1.47447     0.93827     0.98639
H      0.29198     0.93814    -1.90568
C     -0.40216     0.10192     0.57995
H     -0.85092    -2.56825     0.63594
H     -2.37283     0.10283     1.25122
C     -2.85286    -2.55550     1.31715
