 13
no_name:-381.979254823413
H     -1.83572    -0.61032    -1.90416
C     -1.07398    -0.55766    -1.13009
C      0.05997    -1.61705    -1.04084
C      0.49736    -1.21794     0.39698
H      1.14188    -1.86949     0.98327
C      0.99968     1.32854     1.16380
C     -0.89206    -1.71259    -0.10094
C      0.42353     2.48326     0.69650
C     -0.70205     2.01965    -0.49298
C      0.42422     0.23008     0.47063
H      1.76695     1.27754     1.93500
C     -0.56595     0.63735    -0.49208
C     -0.40044     3.25394    -0.06703
