  9
no_name:-229.808129879578
C     -0.95668    -0.46013    -0.38115
C      0.91398     0.50924     0.08798
C     -0.22214    -1.67048    -0.72590
C     -0.28571     0.89305    -0.36515
H      1.82765     1.02900     0.37334
H     -0.74561     1.85242    -0.59851
C      0.63480    -0.96910     0.22065
C     -0.68962    -1.46314     0.68479
H     -1.16910    -1.99488     1.50382
