  8
no_name:-229.262389785863
C     -0.65658     0.42090     0.08652
H      1.91154    -1.68366     0.21609
C      0.55260     0.20042    -0.16399
C     -1.95743     0.64783     0.36452
C      1.74420    -0.67297    -0.14591
C     -3.13799     0.85385     0.62126
C      1.99252     0.48868    -0.68674
H     -4.17467     1.03558     0.83647
