 15
no_name:-345.934839838161
C     -0.43848    -0.52033    -0.19114
H     -0.27681     2.65259     0.46346
H     -3.16851     1.04424    -2.29243
H      2.30035     0.51083     1.48291
C     -0.01106     1.90517    -0.30524
C      1.20301    -1.43012     1.06440
C      1.46171     0.00630     1.00151
H      0.69807     2.40940    -0.98586
C      0.46669     0.55894     0.24088
H     -0.36373    -2.74873     0.22499
C     -1.43140     0.04474    -0.95363
C      0.06592    -1.75612     0.35120
C     -2.27812     0.92530    -1.67145
H      1.83232    -2.13985     1.60505
C     -1.23800     1.48156    -1.06089
