 13
no_name:-382.045398441142
H     -3.72417     2.59690    -0.53114
C      1.65484    -1.23934     0.70300
C      2.75660    -2.01538     0.93950
C     -0.80504     0.86708    -0.98508
H      4.60167    -3.31679     1.33801
C      3.73683    -2.70756     1.15258
C      0.67280    -0.54506     0.48457
C     -2.85044     1.97231    -0.33211
C     -0.46459     0.26134     0.23498
C     -1.88334     1.66764    -1.32620
H     -1.98862     2.05866    -2.34229
C     -1.49443     0.64484     1.10800
C     -2.50817     1.36892     0.87375
