 13
no_name:-344.64867345734
C      0.46643     2.92382     2.31727
C     -0.36261     1.84037     1.63488
C     -0.31715     0.76810     0.76112
C     -0.15642    -1.21938    -0.88306
C     -0.01265    -3.21194    -2.53566
C      0.05329    -4.15002    -3.31430
C     -0.23164    -0.17682    -0.02137
H      0.11266    -4.97500    -3.99942
H      0.82686     3.77451     1.71744
H      1.14619     2.63741     3.13534
C     -0.08772    -2.16599    -1.66694
H     -1.93988     2.96336     2.89000
C     -0.99916     2.66042     2.43633
