 13
no_name:-269.904072901612
C      1.23371    -0.23750    -1.47302
C      1.98728    -0.16456    -2.42535
C     -1.22034     0.36167     1.28482
H      2.65854    -0.11539    -3.26164
H     -1.10053     1.31810    -0.66812
H      0.22541     1.74169     0.41779
H     -1.90671     0.95091     1.89407
C     -0.92655    -0.95253     1.43592
C      0.03820    -1.35593     0.41669
H     -1.33607    -1.62146     2.19475
C      0.34387    -0.28324    -0.37212
C     -0.44419     0.91197     0.12401
H      0.45160    -2.35875     0.30243
