 10
no_name:-305.318076495239
H      2.86044     0.55565     0.14414
C     -1.96291    -0.28375    -0.17188
C     -1.84647    -0.13373     1.14682
C      1.80326     0.36032    -0.03680
C     -0.03040    -0.10884    -1.65600
C      1.16893     0.13881    -1.18728
C     -0.40696     0.13158     1.38422
C      0.75328     0.28857     1.00800
C     -1.23863    -0.27068    -1.26496
H     -2.61360    -0.18689     1.91966
