  8
no_name:-229.239335262997
H      0.95862     2.31629     1.10392
H     -1.42015    -1.00488    -2.28037
C      0.16316    -0.58774    -0.62281
C      0.23832     0.17677     0.52807
C      0.55328     1.30811     1.19088
C      0.01422     0.28884     1.96437
C     -0.49229    -1.04366    -1.70957
C      0.79590    -1.53187    -1.53606
