 17
no_name:-384.536759163901
H     -2.47353    -0.26405     2.51512
C      0.67238    -1.31423    -0.98135
C      1.70774     0.87664    -1.48211
C     -0.91662    -0.21662     1.00674
H      0.03580     1.66327     0.51578
H      2.23850     2.09676    -3.10533
C      2.53922     1.60498    -2.16933
H     -1.74236    -2.21103     1.31875
H     -2.29590     1.30683     1.68841
C     -1.74570     0.43799     2.08424
C      0.84476     0.10304    -0.77456
C     -1.04005    -1.59287     0.75299
H     -1.10301     0.80658     2.90125
H      3.57994     1.75190    -1.84725
C     -0.19175    -2.07393    -0.27273
C      0.61542    -2.70662    -1.29488
C     -0.01298     0.59814     0.27346
