 16
no_name:-383.903199044168
H     -1.25550    -0.37082     2.33174
C      0.69795    -2.13469     1.13142
H     -1.02264     0.88106    -2.80719
C      1.12739    -3.18132     1.57328
H      1.51317    -4.10900     1.95286
C      0.27075     2.27373    -1.16525
H     -1.80430     1.82170     0.87518
C      0.49969    -0.27848    -0.52259
C      0.17692    -0.90325     0.64563
C     -0.28995     0.97959    -0.61270
H      1.34074     2.47059    -1.30540
H      1.21092    -0.62599    -1.27107
C     -1.11224     1.01290     0.64409
C     -0.83199    -0.08814     1.36807
C     -0.89283     1.49109    -1.90486
C     -0.82912     2.91200    -1.80953
