 15
no_name:-271.136528396291
H      1.74124     0.43393     1.60866
H     -1.80353    -0.54189    -0.71539
C      0.35575    -1.26303    -0.99706
C     -0.26274     0.48339     0.55904
H     -0.50477     1.90141     2.12370
H      0.75935     0.70252    -2.00923
H      0.14460    -2.28612    -1.32176
C     -0.95039     1.40051     1.25987
C     -0.74594    -0.27632    -0.64379
C      1.44444    -0.99276    -0.00915
H     -1.97363     1.67510     0.99041
H      2.40032    -1.52116    -0.01239
H     -0.49804    -0.34957    -2.85741
C      1.10314     0.00543     0.83307
C      0.03626    -0.11514    -1.93190
