 11
no_name:-193.780549394965
H     -0.98727    -0.77401    -1.28824
C     -1.06099     0.16841    -0.73974
H     -2.07794     0.55325    -0.62412
H     -0.50998     0.91778     1.28703
C     -0.11225     0.35690     0.43357
H     -0.15392     2.21466    -0.81807
H      2.30599    -2.33216     1.33644
C      0.82091    -0.68334     0.78592
C      1.60697    -1.56113     1.07357
H      0.92333     0.87643    -1.48192
C      0.07009     1.14500    -0.85390
