 11
no_name:-118.972949342495
H     -1.53126     0.82571     0.10490
H     -0.52281    -1.27922    -1.14150
C      0.46044    -0.99292    -0.73053
C      0.30929    -0.24539     0.59473
H     -0.04798     1.74100    -0.24329
C     -0.51192     1.03839     0.46995
H     -0.60567     1.55841     1.43709
H      0.96251    -0.36591    -1.48712
H     -0.16082    -0.91130     1.34061
H      1.05413    -1.91405    -0.61374
H      1.30978    -0.00417     0.99671
