 11
no_name:-231.069047427522
C      0.74922    -1.40040    -0.62790
H     -1.26952    -0.36825    -0.62350
H      0.83821     0.27781     1.57876
H      1.48713     0.42379    -1.82885
H     -1.23150     2.56434     1.27099
C     -0.24583    -0.33427    -0.21572
C     -0.17602     0.27883     1.14516
H      1.04348    -2.43843    -0.49172
C     -1.13244     1.51409     1.52066
C      0.92798    -0.23688    -1.17032
C     -1.36279     0.36976     2.05843
