 15
no_name:-345.942414879163
C      1.18678     0.53709     1.22398
C      0.93066    -1.27572    -0.54754
H      1.96705     0.72943     1.96869
C     -1.05348     1.45951     0.39126
C     -1.41646     0.48536    -0.45548
C     -1.54047    -0.45797    -1.29032
C      0.20957     1.48318     1.11609
C      1.18734    -0.82019     0.65861
H     -1.44284    -1.91918    -2.88349
C      0.42981    -1.72760    -1.68729
H     -1.73674     2.29437     0.58627
H      1.35873    -1.59700     1.42525
C     -0.97701    -1.43759    -2.02001
H      0.35533     2.38513     1.72064
H      1.06518    -2.18192    -2.45662
