 13
no_name:-232.429631566329
H     -1.32773     0.98237    -0.37779
C      0.95971    -0.02833     0.60943
H      2.46865     2.01122     2.72282
C     -1.07753    -0.01792    -0.74973
C      1.76514     0.47128     1.41937
C     -2.02168    -0.64632    -1.72091
H      3.53861     0.47674     2.61083
C      2.63869     1.01631     2.29932
H     -2.13266    -0.02504    -2.62843
H     -1.68592    -1.64824    -2.03008
C      0.07060    -0.60526    -0.29790
H     -3.03461    -0.74044    -1.28866
H      0.32375    -1.60832    -0.66928
