 15
no_name:-345.962002458243
C      1.41945     0.13695     1.70649
H      0.42656    -1.77560    -2.40859
C      0.91806    -0.91400    -0.50378
H      2.74630     0.37069     3.55554
C      0.11374    -1.06246    -1.64101
H     -1.69495    -0.45612    -2.72309
C      2.12414     0.26327     2.68702
C     -1.08063    -0.32652    -1.82863
C      0.59222    -0.00949     0.54972
C     -0.58861     0.68523     0.31337
C     -1.35869     0.53654    -0.78572
H      1.83008    -1.50807    -0.41263
C     -1.82761     1.52577     0.24388
H     -2.68764     1.27748     0.88482
H     -1.74028     2.60441     0.04140
