 15
no_name:-345.968309008111
C      0.82206    -0.43415     0.40073
C     -2.15116     1.54977    -0.66973
C     -0.36382     0.08714    -0.14896
H      4.96869    -2.13575     2.34852
H     -0.15627     2.25571    -0.15687
H     -3.16156     0.12861    -1.98781
C      1.86235    -0.85717     0.89339
C     -2.33163     0.37577    -1.32391
C      3.02253    -1.33534     1.43620
H     -1.12245    -1.54380    -1.39391
C     -0.88854     1.48107     0.13733
H     -2.80349     2.42301    -0.70632
C     -1.23458    -0.53010    -1.00757
C      4.05858    -1.75928     1.92137
H     -1.06977     1.62867     1.21818
