 14
no_name:-307.847745904684
H      2.46506     0.44814    -1.11014
H      0.69760    -1.48576    -2.01921
C     -1.61755     0.27963     1.13416
H     -2.75649    -1.38797     0.12360
C     -0.57547    -0.63514    -0.40658
H      1.88818     0.57867     1.68562
C     -1.88692    -0.74139     0.26201
H     -2.18528     0.74660     1.94169
C     -0.24595     0.49417     0.53978
H      0.72954     2.55875    -0.27234
C      1.47136     0.29001    -0.68229
C      1.24532     0.51726     0.80900
C      0.49082    -0.79614    -1.20032
C      0.68288     1.47882    -0.14198
