  9
no_name:-229.743597794064
C     -1.13238    -0.25900     0.35979
C      1.07809     0.30823    -0.09016
C     -0.70939    -0.84101    -0.88094
C     -0.34303     0.64241    -0.59757
H      1.48058     0.84067     0.78560
H     -0.72504     1.50335    -1.15740
C      0.33474    -1.00360     0.23521
C     -0.48042    -1.01431     1.40558
H      1.81622     0.27397    -0.90662
