 13
no_name:-232.434736254169
C     -1.09666    -1.09848    -3.07802
C     -0.38538    -0.85851    -2.00915
C     -0.11199     0.08983     0.23967
H     -1.12223    -0.39867    -3.92482
H     -0.71521     1.39895     2.58835
C      0.69599     0.32259     1.37452
C      0.29647     0.99075     2.50161
H      0.97243     1.13714     3.34688
H     -1.14083     0.46525     0.24044
H      1.72144    -0.06772     1.33786
C      0.34284    -0.61271    -0.91337
H      1.37749    -0.98443    -0.90138
H     -1.70320    -2.00945    -3.17650
