 18
no_name:-385.243643090277
H     -1.32583     2.27355     0.06108
H     -2.57687    -1.24191     2.76948
C     -0.25047    -0.65593     0.24989
H     -2.04851     1.17410     2.43971
H      2.28885    -0.15949    -2.63049
C      0.11730     0.64458    -0.14787
C     -1.22512    -0.55812     1.36667
H     -0.03696    -2.77947    -0.08508
C      1.19415    -1.58356    -1.42715
H      1.62326    -2.44746    -1.94116
C      0.27516    -1.77823    -0.39050
H     -0.00480     2.36907     1.22512
C      1.56887    -0.29045    -1.81866
C     -1.39967     0.78857     1.65050
C     -0.64996     1.65226     0.68108
C      1.02629     0.83612    -1.18556
H      1.31185     1.84182    -1.50620
C     -2.17221    -1.52830     1.77171
