 12
no_name:-306.557397716706
H      0.35751     3.21429     2.02918
H      0.96851    -4.12794    -0.49786
C      0.77894    -1.86137    -1.04548
C      1.00617    -3.18717    -1.04881
C      0.35813    -0.70402    -0.41874
C     -0.45398     1.49348     0.73143
C      1.31438    -2.50082    -2.23067
C     -0.30717     2.57887     1.44960
C     -0.00127     0.33236     0.13143
H     -2.04862     2.96866     0.06848
C     -1.68755     2.37489     0.92303
H     -2.48883     2.01979     1.59028
