  9
no_name:-304.610282532117
C      1.86173     1.18767     1.37768
C      0.83105     1.00619     0.63688
C     -1.09141    -1.70953    -0.92784
C     -1.02235    -0.39062    -0.77705
C     -1.15670    -2.98011    -1.05584
C      2.90622     1.41102     2.13337
C     -0.21455     0.73052    -0.11997
C     -1.33039     0.93324    -0.89311
H     -1.98600     1.70306    -1.29928
