 14
no_name:-233.084829684265
H     -1.85172     3.33761     0.30007
H      2.35631    -2.89675    -0.73058
C     -1.28817     1.28555     0.16654
C     -0.26974     0.26568     0.00396
H      0.76274     0.61765    -0.10921
H     -2.31871     0.92868     0.28747
C      0.44889    -2.13939    -0.17768
H      0.09461    -3.13924     0.10007
H     -0.03185     3.00227     0.05606
H      2.11284    -1.06737    -0.98568
C      1.70188    -2.02505    -0.65193
C     -1.04677     2.60922     0.17527
H     -1.56368    -1.38196     0.15490
C     -0.52585    -1.06354    -0.00083
