 14
no_name:-233.045462063442
H      3.58196     1.78508    -0.72213
H     -2.44693     0.15998     0.00572
C     -0.46679     0.28623     1.11857
H     -0.49798     1.38120     1.01538
C     -1.53793    -0.41178     0.24492
C      0.63278    -0.32473     0.19377
H     -0.41605     0.03032     2.18755
H     -1.83786    -1.38515     0.66417
C      1.79187     0.47968    -0.15779
C      2.73838     1.17568    -0.45858
H     -0.51418     0.26284    -1.59531
C     -0.47958    -0.56773    -0.87462
H     -0.43929    -1.51816    -1.42758
H      0.96918    -1.29172     0.60585
