 10
no_name:-230.47741094527
C      0.55261     0.66777    -1.07104
C     -0.78224     0.00286    -0.45173
H      0.35078     1.52888     0.95460
C     -0.08581     0.12800    -2.05496
H     -0.90940    -2.27652     0.22821
H      1.35622    -1.19733     1.63006
H     -1.73210     0.54157    -0.39094
C      0.45980     0.62122     0.35072
C      0.60292    -0.78926     0.95506
C     -0.45433    -1.28783     0.30446
