 10
no_name:-305.298510661744
C      1.10471     0.64511     0.78311
C      0.59148    -0.53323     1.34630
C     -1.25183    -0.80284    -0.29111
H     -2.30921    -1.01063    -0.46918
H      1.64430     1.41901     1.33349
C     -0.46563     0.07676    -1.05079
C      0.65419     0.76485    -0.54041
C      0.45457     0.68753    -1.94579
C     -0.52806    -1.22126     0.83592
C      0.33124    -1.86604     1.76705
