 13
no_name:-232.399881620297
H     -1.99059     0.42627     1.45343
H     -1.44390     0.03227    -1.71438
H      0.35328     1.72697     2.64697
H      0.81310    -1.93062    -0.74861
H      0.34522     0.16894    -2.11695
C     -0.41358    -0.16610    -1.40302
C      1.06203     0.64714     0.74850
C      0.19969     1.11281     1.75698
C     -0.09195    -0.05478     0.06449
H     -0.97609    -2.06704    -0.34665
C     -0.13662    -1.40946    -0.59289
H      2.12596     0.74056     0.52714
C     -0.93268     0.49517     1.19702
