 13
no_name:-232.387254660392
C     -0.03507    -0.52637     0.77315
H     -1.97706    -1.35328    -0.01068
H      2.21656    -1.22288     0.38885
H      2.07313     1.44897    -0.59695
H     -0.31453    -0.79960     1.80091
C     -1.05540     0.46562    -0.83387
H     -1.43523     0.93837    -1.74373
C      1.36243     0.79661    -0.08031
C      1.42671    -0.46537     0.38419
C     -1.00810    -0.96640    -0.38087
C     -0.12512     0.96192     0.24583
H     -0.42833     1.81302     0.87906
H     -0.60365    -1.71569    -1.08711
