 16
no_name:-383.949136530469
C     -0.62142     4.51770     2.29050
C      0.94415    -1.78714    -1.77159
H     -0.82739     6.56079     3.31477
C     -0.49892     3.30447     1.68300
C     -0.60929    -2.54825    -0.57052
C     -0.72908     5.60410     2.83700
H      0.88579    -4.01010    -1.33197
C     -0.38812     2.20705     1.13750
H      0.81274    -1.27034    -2.73548
H     -1.41643    -2.92507     0.06251
C      0.23460    -3.17964    -1.65498
H      2.01172    -1.77930    -1.50021
C     -0.00642    -1.33424    -0.66080
H     -0.31194    -3.50143    -2.55823
C     -0.26379     1.00071     0.52947
C     -0.16071    -0.09987    -0.00698
