 11
no_name:-268.622806410351
C      2.36545     1.91769     1.97662
H     -3.48003    -2.67881    -2.95724
C     -1.08358    -0.79660    -0.93323
C      1.41395     1.16925     1.17340
C     -1.97739    -1.49763    -1.68836
C     -0.27890    -0.16341    -0.25429
H      1.87889     2.35295     2.86588
C      0.61519     0.53649     0.49905
C     -2.77886    -2.12547    -2.36129
H      3.18706     1.26917     2.32511
H      2.81067     2.74415     1.39714
