 18
no_name:-385.326654381566
C      0.16924     2.33495    -0.00476
C      0.56190     0.09582     0.87062
C     -0.58964     1.85909    -1.02904
H     -1.84011    -1.03805    -2.42335
C     -0.24998    -0.46503    -0.22135
C     -0.26140    -1.83092    -0.05298
H     -1.02883     2.54775    -1.75548
H     -0.76834    -2.56162    -0.68480
C      0.52788    -2.16444     1.12870
H      0.68729    -3.17939     1.49544
C      1.02404    -1.01618     1.68792
H      1.64861    -0.92847     2.57636
C      0.75998     1.44155     0.96924
H      1.36349     1.86034     1.77999
C     -0.85134     0.42904    -1.20761
H      0.34217     3.40938     0.09414
C     -1.61930     0.01807    -2.25197
H     -2.04059     0.74005    -2.95601
