 13
no_name:-382.09243112032
C     -1.35402     0.73604    -1.76456
C     -0.88247    -1.34811    -0.39584
C      0.41186     1.90696    -0.27603
C     -0.45525     1.53925    -1.09080
H     -1.97455     1.08383    -2.59547
C     -0.26681    -1.97862     0.54352
C      1.41903     0.63682     1.35272
C      0.68366    -1.83873     1.54038
C      1.20992    -0.56388     1.60879
H      0.98318    -2.65553     2.20337
C     -1.39044    -0.56006    -1.27929
H      1.92445     2.74201     1.06063
C      1.32992     1.87608     0.75315
