 15
no_name:-308.492813273685
H     -1.33810     4.79240     2.07644
C      0.47816    -0.96517    -0.93654
C      0.80322    -2.02235    -1.45553
C      0.10412     0.26240    -0.36263
H      2.23752    -3.54138    -1.82297
H      0.55530    -4.11243    -1.72352
C     -0.89401     2.70893     2.09179
C      1.19353    -3.28244    -2.07140
H      1.11394    -3.23245    -3.17010
C     -0.18718     0.43011     0.98392
H     -0.12086    -0.44838     1.63806
C     -1.25732     3.87255     2.66448
H      0.04034     1.13572    -1.02197
H     -1.46781     3.93416     3.73708
C     -0.55516     1.62980     1.55553
