 12
no_name:-231.795112941064
H      1.29588     1.34113    -0.60820
H      0.29369    -1.35718    -1.47610
H     -2.65827     0.49949    -1.88151
C     -0.84259     0.52484    -0.80841
C      0.46928     0.74688    -0.20930
C     -0.07029    -0.70604    -0.67668
C      0.54843    -0.45114     0.61996
H      1.00988    -2.07488     1.88478
C      1.09520    -1.00199     1.69980
H      1.63528    -0.39150     2.42664
H     -2.03280     2.18305    -1.34024
C     -1.89934     1.09975    -1.37518
