 10
no_name:-230.593211531017
C     -1.23277     0.47847     0.73320
H     -2.07009     0.43596    -1.22643
H     -1.41149     0.73268     1.78605
C      0.05030    -0.04663     0.42947
C     -2.21166     0.67587    -0.16942
H     -3.17818     1.08372     0.13633
H      4.47772    -1.88921    -0.50339
C      2.40226    -1.02094    -0.06058
C      1.16009    -0.50988     0.20217
C      3.50618    -1.48173    -0.29596
