 14
no_name:-382.680265529772
C      0.63061    -0.23364    -0.47338
H     -2.32523     1.58534     2.67712
C      2.66151    -0.46606    -2.06695
C     -0.46944    -0.08693     0.40092
C      3.61436    -0.57698    -2.81948
H      4.45262    -0.67539    -3.48355
H     -1.58132    -1.98333     0.14647
C     -1.85759     0.91251     1.96255
C      1.59155    -0.34101    -1.22434
C     -2.39077    -0.42782     1.60097
C     -0.72318     1.09745     1.24457
C     -1.46973    -1.00692     0.61044
H     -0.08092     1.97755     1.27066
C     -3.48382    -0.97123     2.09809
