 14
no_name:-270.379502955724
C      0.69763    -1.29689    -1.65468
H      0.99273    -0.18952     0.80112
C     -1.13233     0.28923     1.32440
C      1.93754    -1.81041    -1.83967
H     -2.12321    -0.02153     0.98128
H      2.99170    -1.84072    -1.55978
C      0.03180     0.08009     0.35336
H     -1.16903    -0.25503    -1.46154
H      0.15319     2.11603     1.29478
C     -0.21603    -0.48219    -0.96844
H     -0.93145     0.08099     2.37896
H     -1.04527     2.00395    -0.09747
C     -0.50084     1.47914     0.69267
C      0.93677    -2.24237    -2.72130
