 11
no_name:-231.175185172143
C     -0.12179    -0.67276     1.08658
H     -1.10109    -0.80709    -0.85836
H      2.27964     3.01864    -2.96431
H     -0.72818    -1.84983     2.75496
C     -0.88501    -1.59088     1.70513
H     -1.69099    -2.11010     1.17641
C      1.10010     1.47764    -1.69682
C      1.73684     2.30533    -2.37355
C     -0.29228    -0.29339    -0.31182
H      0.67872    -0.16564     1.63571
C      0.43842     0.60696    -0.95548
