 16
no_name:-383.948492551132
C      0.54722    -0.22422    -0.19048
H     -6.34125     2.84075     2.73119
H      3.91183    -2.26633     0.82377
C      2.71819    -1.30162    -0.65581
H      1.70863    -1.16871     1.27524
H      2.62945    -1.02606    -1.71212
H      4.60182    -2.26721    -0.91145
C     -2.61989     1.46986    -0.12331
C     -3.55579     1.81384     0.59072
C      3.80028    -1.98010    -0.22693
C     -0.47626     0.41209    -0.56566
H     -1.64425     1.36741    -2.03299
C     -1.56169     1.08923    -0.97236
C      1.63064    -0.89870     0.21345
C     -4.59596     2.19650     1.38944
C     -5.52370     2.53962     2.10361
