  7
no_name:-153.809161740619
C      0.79265     1.09337     1.65087
H     -1.30545    -0.14079    -0.80288
C      0.13712     0.71123     0.49557
H      0.38655    -0.28614    -1.33902
C     -0.27591    -0.32591    -0.45810
H     -0.20393    -1.32779    -0.00814
C      0.16336     2.03692     0.88889
