 15
no_name:-308.428720891117
H     -1.05023     1.53400     2.76963
C      0.14714    -0.39631    -1.65873
H      2.80383    -2.56339    -2.88251
C      1.11567    -1.18485    -2.09692
C     -0.49523    -0.11720     1.33647
C     -0.93014     0.82743     0.24473
H      0.47634     0.59035     3.19875
C     -0.23304     0.88506     2.41722
C     -0.79881     0.38810    -1.17773
H     -0.26652    -1.17921     1.25898
H     -1.80208     1.47321     0.43201
C      2.02061    -1.92475    -2.52073
H      1.34797     1.17073     0.67807
H     -1.57319     0.76666    -1.86250
C      0.32569     1.07712     1.04190
