 13
no_name:-307.152388781939
C     -0.35960     0.08843     1.26435
C      0.73681     0.50227    -0.71967
C     -1.17805    -1.22356    -0.69725
H      0.25047     2.13230     1.76085
C     -1.87055    -2.02369    -1.29330
H     -1.03149    -0.32497     2.01930
H     -2.48928    -2.72954    -1.81488
H      1.77070     1.14970    -2.60062
C     -0.34023    -0.28101    -0.04091
C      1.01071     0.61035    -2.03186
H      1.35229     0.92597     2.38573
C      0.69336     1.14140     1.52291
C      1.47889     1.28714     0.24737
