 13
no_name:-194.957764926309
C     -0.37249    -0.37288     0.84243
H      0.35096    -0.30751     1.67426
H     -0.72697    -1.68157    -0.87972
H      1.79487     0.78172    -0.43738
C      0.11051    -1.42881    -0.17851
H      0.89622     1.28287    -1.86259
C      0.81924     0.63963    -0.97107
H      0.44194    -2.40232     0.21752
H     -0.21776     1.83082     0.60124
H     -1.28684     1.02422    -0.56479
H     -1.35587    -0.60036     1.28139
C     -0.34756     0.91442     0.00551
C      0.98746    -0.81581    -1.20692
