 14
no_name:-307.862860517697
C     -0.64422    -0.34483     0.59446
H      2.56100     0.48430    -4.40055
C      0.29564     0.01853    -0.43397
H     -2.42558    -0.76855     3.51582
H     -2.77999    -1.49085     1.82865
H     -1.42910    -1.42817    -1.32347
C     -2.14422    -0.86727     2.46446
H     -0.43358     0.37308     2.62354
C     -1.05794    -0.24618     1.97239
C      1.83548     0.58254    -2.23051
C      1.39690     0.65731    -0.88057
C      2.22187     0.53255    -3.38390
H      1.98012     1.25944    -0.17646
C     -0.83592    -0.82381    -0.64032
