 11
no_name:-193.802305884654
H     -1.96033     1.65357     1.04712
H     -1.71659     0.25802     2.12432
C     -0.32018     0.40844     0.53207
H     -0.62135     1.66020     2.22063
H      1.70959    -2.15272    -2.74027
C      0.40298    -0.10844    -0.29822
C     -1.19235     1.02197     1.52566
H      0.02879    -2.28357    -1.92804
C      1.27502    -0.68782    -1.26629
H      2.25057    -0.19921    -1.38864
C      0.98740    -1.76537    -2.01715
