 10
no_name:-230.583372995818
C     -0.27284    -0.12880    -0.01186
H     -2.95812    -0.76964    -1.82735
C     -2.57790    -1.00845    -0.82693
H      3.82028     1.80162     0.56538
C     -1.40550    -0.56233    -0.41184
C      2.00946     0.74054     0.79493
H     -3.21409    -1.62728    -0.18294
C      3.18430     1.18165     1.20848
C      0.87598     0.30887     0.39526
H      3.56302     0.94440     2.20984
