 17
no_name:-384.54291912031
C      1.15019    -3.86368    -1.81788
C     -0.30318     1.99834     1.67098
C      0.84730    -5.02693    -1.64781
C      0.83934    -1.45891    -1.62973
H      0.57392    -6.05408    -1.49560
C     -1.06218     3.11035     2.06475
H     -2.29789     4.92593     2.73275
C     -0.44492     1.35235     0.44232
C     -1.72286     4.07495     2.41978
C      0.30701     0.24791     0.05134
C      1.53466    -2.50362    -2.03427
H     -1.19620     1.74085    -0.25479
H      0.44412     1.62120     2.37983
C      0.14364    -0.40385    -1.21576
H      1.06097    -0.15217     0.73712
H     -0.61794     0.00391    -1.89652
H      2.48018    -2.33754    -2.57517
