 11
no_name:-268.590740855156
C      0.41745     0.17140     1.51543
H     -1.36295    -1.33613    -1.59724
C     -0.56001     1.72610    -0.24295
C     -0.64488    -0.68388    -1.08333
C      0.50673    -1.29610    -0.43113
C      0.97529    -0.94837     0.82411
H      1.72939    -1.59376     1.28740
H     -0.45518     2.76475    -0.56612
C     -0.84330     0.64916    -1.01892
C     -0.10107     1.16993     0.96041
H      0.93847    -2.19021    -0.89401
