 12
no_name:-194.428044692549
C      0.48050    -0.11901    -1.01191
H     -1.71767     1.03926     1.35479
C      0.83103    -0.97189     0.24375
H      1.88548    -0.84271     0.55120
H     -0.15313    -0.86496     2.32341
H      0.17561    -0.74876    -1.86836
H      1.34788     0.46615    -1.37021
C     -0.64178     0.77544    -0.54985
H     -1.13710     1.51195    -1.18512
C     -0.12273    -0.47992     1.30257
C     -0.94156     0.52102     0.78606
H      0.70886    -2.05489     0.05572
