 16
no_name:-234.289087102213
H     -3.37370    -0.69461    -0.19720
C      1.27696    -0.72089    -0.26827
C     -0.15219    -0.89789    -0.53340
H      0.01531     1.70255     0.44428
C      1.10171     1.67733     0.62574
H      1.59739     2.10405    -0.26284
C     -1.34231    -1.02803    -0.72868
H     -3.06614    -0.77114    -1.94789
H     -3.05598    -2.26209    -0.97594
H      1.77568    -0.35805    -1.18636
C     -2.77167    -1.19624    -0.97350
H      2.66678     0.24389     1.06982
H      1.10654    -0.13773     1.80955
C      1.57766     0.25079     0.89032
H      1.31932     2.33779     1.48024
H      1.72877    -1.70447    -0.04756
