 18
no_name:-310.426429431768
H     -0.31127     2.62376     0.70123
C      0.41937    -1.70728    -0.24189
H      0.91295    -1.72932    -2.38412
H     -0.24351     0.38283    -2.09512
H      1.37220     0.95253     0.44355
C      1.15048    -1.17240    -1.46194
C     -1.29184     0.87009     1.59600
C     -0.90425    -0.42514     1.63503
C     -0.00052    -0.68364     0.52119
H     -1.26781    -1.17299     2.34258
H     -2.01331     1.32434     2.28080
H      1.43675     0.97187    -2.00953
C     -0.68214     1.62335     0.42454
C      0.42528     0.65798    -0.05110
H      0.24830    -2.76961    -0.05371
H      2.24957    -1.24489    -1.33406
H     -1.45004     1.77833    -0.35943
C      0.69849     0.31491    -1.52385
