  9
no_name:-192.43523720192
C      0.80868     0.77941     0.33872
H     -1.74753    -1.33343    -0.76424
C     -0.73250    -1.15818    -0.38412
C     -0.14261     0.20708    -0.57445
H      2.34170     1.63273     1.80531
H     -0.75180     0.92558    -1.14216
C      1.62218     1.22581     1.12004
H     -0.47505    -1.78411     0.48141
C      0.33571    -0.99098    -1.39407
