 17
no_name:-309.725244607827
C     -1.40230     1.73679     1.42104
C     -0.84748     0.72978     1.02126
C      0.47566    -0.57810    -0.57477
C     -2.06549     2.94703     1.88971
H     -2.87140     3.25356     1.20106
H     -1.35598     3.78871     1.96480
H      1.72146    -3.85121    -0.73285
C      1.15738    -1.78654    -1.07836
C     -0.20825    -0.46221     0.58600
H      1.71241    -0.79442    -2.92880
H      2.26939    -2.57310    -2.76689
C      1.75096    -1.71239    -2.33788
H     -0.29639    -1.32684     1.25439
H      0.53665     0.30272    -1.22179
H     -2.51503     2.79761     2.88556
H      0.77318    -3.05727     0.66361
C      1.21554    -2.97109    -0.32971
