 11
no_name:-305.950308099584
C      1.92359    -1.05428     2.95492
C     -0.48784     0.09234    -1.26900
H      0.28523     0.67027     3.29278
C      0.43989    -0.29756    -0.54136
C     -1.50109     0.51011    -2.06490
C      0.93821    -0.05984     2.81277
C      1.45509    -0.74125     0.26740
C      1.41886    -0.61337     1.68448
H     -3.20674     1.23764    -3.42418
C     -2.40937     0.89874    -2.78864
H      2.32715    -1.23184    -0.18268
