 10
no_name:-342.743339315213
C     -1.80806     4.02718    -1.02941
C     -1.25412     2.89753    -0.73828
C      1.51232    -2.77752     0.72881
H      2.49007    -4.79398     1.25072
C      2.03391    -3.85130     1.00769
C      0.40744    -0.50320     0.14184
C     -2.37206     5.16277    -1.32044
C      0.93953    -1.59623     0.42298
C     -0.69964     1.76105    -0.44296
C     -0.15536     0.65355    -0.15738
