  9
no_name:-304.656157969626
C      0.49190     0.10374     0.29900
C     -0.71971    -0.29591    -1.96345
C      1.68894     0.49964     2.55638
C     -1.85546    -0.53902    -2.70906
H     -2.93022    -0.69234    -2.61174
C      1.09032     0.30138     1.42829
C      2.28961     0.70210     3.69135
C     -0.09915    -0.09172    -0.80815
C     -0.71128    -0.43529    -3.44288
