 10
no_name:-230.495461577045
H     -2.21598    -0.13211     0.28978
C      1.01631     0.82336     0.52625
H      2.58596     0.69569     2.25602
H     -1.77300     0.64418    -1.32550
H     -0.12697    -1.93757    -1.24079
C      1.99465     1.05451     1.41232
C     -1.44878     0.00753    -0.48661
C      0.00510     0.01435    -0.03337
C     -0.40114    -1.03766    -0.69519
C      1.69468     2.09505     0.51604
