 13
no_name:-307.206148808513
H      1.87130     2.14849     2.61822
H     -0.38962    -2.20367    -2.24961
H     -3.88118     0.96464     0.01943
C     -1.63368     0.53290     0.15368
C      0.56098     0.98256     1.14080
C      0.32930    -0.72223    -0.59984
H      2.03146    -2.17117    -0.29205
C      0.22292    -1.64824    -1.54485
C     -2.82812     0.76435     0.08313
C      1.25726     1.60188     1.92736
C     -0.24561     0.26150     0.23023
H      2.35512    -0.89586    -1.57858
C      1.59626    -1.42957    -0.98250
