 15
no_name:-345.84680851862
C      0.90391    -0.31269     0.21736
H     -1.70808     1.86416     0.00370
H      2.82219    -1.35698     0.24166
C     -0.61206    -0.16042     0.12916
C     -1.25437    -0.83069    -0.99777
C      1.88894    -1.24125     0.80359
H     -2.24985    -1.86925    -2.77244
C     -0.74958     1.37091     0.17575
H      0.55311     3.04221     0.69007
H      1.54958    -2.18626     1.24922
H     -1.04008    -0.54820     1.08105
C      0.40746     1.97515     0.52346
C      1.40682     0.90827     0.70507
C     -1.77948    -1.37944    -1.94056
C      1.83980     0.03442     1.70744
