  9
no_name:-304.643257320072
C      0.15779     0.44155     1.42341
C      0.09994    -0.14008    -1.44631
C      2.11185     0.13570    -0.13261
C      1.37675    -0.40407    -1.12471
C     -1.01559     0.04925    -0.52351
C     -1.04102    -0.00962     0.89532
C      1.30654     0.54452     0.86958
H     -1.87521    -0.43603     1.45895
C     -1.14134     0.40930    -1.84795
