  9
no_name:-229.839370342551
C     -0.14381    -0.45938     0.18485
C     -0.17833     1.68716     0.39068
H      1.12834     2.36862    -1.40958
C     -0.29224    -1.78723     0.29707
H     -0.88497    -2.22524     1.10331
C      0.66194     1.59601    -0.80559
H      0.18406    -2.45567    -0.42572
C     -0.65324     0.66489     0.98743
C      0.65138     0.24759    -0.88904
