 12
no_name:-194.381632056139
H      2.19066    -0.13682     0.80907
H     -0.43444    -1.56214    -1.66933
C     -0.52678    -0.49163    -1.42317
C      0.23000    -0.17402    -0.14071
H     -0.11192     0.08127    -2.26815
H      2.16215    -0.70846    -0.97817
H     -1.32263     1.75953     2.15533
H     -1.55907    -0.00538     2.71558
H     -1.59478    -0.25055    -1.33316
C      1.62236    -0.35085    -0.09788
C     -1.14019     0.69010     1.97317
C     -0.46573     0.27010     0.93671
