 13
no_name:-269.874322164121
C      0.13130     1.10315     0.00935
C     -0.32421    -1.21105     0.12716
H      0.67159     2.04679    -0.07290
C      0.78350    -0.23111    -0.00977
C     -1.49060    -0.52031     0.21614
H     -0.18224    -2.29205     0.14859
C     -1.20769     0.91680     0.14290
H     -2.48855    -0.94897     0.32521
H     -1.96733     1.69935     0.18996
H      2.77159    -0.54939     1.43036
C      2.07184    -0.52330    -0.77115
H      2.46746    -0.65202    -1.77470
C      2.19373    -0.48233     0.51288
