 13
no_name:-344.668751140068
C     -0.04189    -1.32827     1.13418
H     -3.06594    -0.29320    -1.38516
H     -0.58023    -3.30510     0.30429
H      2.25786     1.17072     1.52477
C     -0.84377    -2.24348     0.37002
C     -2.02189    -0.57728    -1.21191
C      0.71963    -0.36868     1.21432
C     -0.95569     0.36612    -1.40691
C     -0.04475     1.06940    -0.97941
C      1.41093     0.83785     0.91710
C      0.99516     1.58377    -0.15716
H      1.45804     2.55268    -0.36798
C     -1.65165    -1.62762    -0.48672
