 11
no_name:-268.446655700194
C     -0.34064     0.46423    -0.61181
C     -1.08876    -0.81482    -0.73567
H      0.97370     0.66131     2.33154
C      0.59049     0.90791     0.23989
C     -1.07275     0.99264    -1.80919
H      0.69764    -0.87458     1.45156
C     -1.78666    -0.04769    -2.03018
C     -2.00810    -1.36511    -1.49591
C      1.14641     0.12689     1.38147
H      2.23992     0.02031     1.27642
H      0.96066     1.92441     0.07031
