 10
no_name:-193.110293291881
H      0.01213    -0.91032     1.71178
C     -0.24336    -0.56246    -0.40529
C      0.66676     0.53089    -0.61453
H      2.10856     2.28310    -0.91316
H     -1.34788     0.15806     1.30611
C     -0.80494    -0.74760     0.99001
H     -0.29477    -1.42905    -2.48284
C      1.43171     1.46190    -0.77002
H     -1.48960    -1.60630     1.02497
C     -0.55424    -1.35636    -1.42624
