  7
no_name:-191.165509430324
H      1.32665    -0.35616     0.94597
C      0.39314     0.20086     1.04173
H      0.19885     0.76433     1.95926
C     -0.53312     0.22452     0.07542
C     -0.87389    -0.28039    -1.31312
C     -0.32323    -1.02942    -2.22577
C     -1.73215     0.57428    -0.53201
