  9
no_name:-117.743872191607
H      0.48314     1.38814    -1.08410
H     -0.04531     0.90578     1.30610
H      0.56567    -0.02549    -2.29955
H      0.03598    -1.61607    -0.53214
C      0.10823    -0.54677    -0.29142
H     -1.14277    -0.49425     1.46782
C      0.39963     0.31190    -1.27246
C     -0.13534    -0.17948     1.14221
H      0.58069    -0.68938     1.81098
