 12
no_name:-381.335845443419
H      2.70859    -0.99806     1.09198
C     -0.65335    -1.08261     0.41390
C      0.53015    -1.22612     0.75036
H      2.79155     1.15439    -0.10127
C      0.62062     1.11314    -0.54785
C      1.83608     0.63186    -0.01389
C     -0.57953     0.82188    -0.64384
C      1.78883    -0.59173     0.66466
C     -1.53198    -0.18737    -0.28156
C     -2.87756    -0.27196    -0.52832
C     -4.22741    -0.01875    -0.17286
C     -3.96883    -0.68159    -1.33866
