 16
no_name:-309.148002274349
C      2.62775     2.24406     0.62313
H     -2.52995    -1.27508    -1.31375
C      1.71165     1.44959     0.53579
H     -2.17491    -0.97676     1.19398
H      1.23340    -0.62299    -1.39024
C     -1.42885    -0.56772     0.50645
H      3.42840     2.95416     0.70805
C      0.85816    -0.81261    -0.36985
H     -0.93246     1.40802     1.53513
C     -0.52996    -1.44719    -0.35608
H     -1.43681     0.18024    -1.61221
C      0.67176     0.48869     0.40721
C     -0.57758     0.57837     0.92070
H      1.60672    -1.45205     0.12973
C     -1.66293    -0.69188    -0.98998
H     -0.60525    -2.53604    -0.30102
