 14
no_name:-307.807529570151
C      0.10179     0.33292     1.40613
C      1.14277    -0.08649    -0.85278
C     -1.06073    -1.02396    -0.27895
H      0.47696     2.14714     2.41685
C     -1.95802    -1.20396    -1.24366
H     -0.55381    -0.07013     2.18478
H     -2.24012    -1.14708    -2.29559
H      2.46504     0.71258    -2.53520
C      0.28282    -0.60316     0.21586
C      1.83854     0.33626    -1.74818
H      1.30287     1.95200     0.74872
C      0.65556     1.53818     1.52697
C     -2.33486    -1.54104     0.08115
H      0.73754    -1.53549     0.61142
