 17
no_name:-309.619436834089
H      1.03741     1.61146    -0.48675
C     -1.58755    -0.15876    -0.31362
H      0.76964     0.53529     2.43530
C      1.49293     1.25174     0.43963
H      2.17864     1.95947     0.91305
H     -0.58282    -1.41278    -1.86463
H     -2.37595    -1.75399    -1.64264
C     -1.54831    -1.05078    -1.49098
H      1.49884    -0.87211    -0.25808
H     -2.85376     0.77965    -1.87908
C     -2.02154    -0.11028     1.08845
H      2.64157    -0.53801     1.14331
C     -0.75042     0.12044     0.98753
H     -1.05179     1.07518    -2.09569
C      0.62289     0.40944     1.35714
C      1.76514    -0.21586     0.57468
C     -1.83380     0.46183    -1.63181
