 18
no_name:-310.291046498773
C     -0.49427     0.02818     1.03478
C     -0.30272     1.35355     0.79411
H     -1.97601    -1.18385     1.99354
H     -0.37631    -1.26557     2.74129
H      0.58772    -1.63892     0.14192
C     -1.09156    -0.57739     2.25892
H     -1.39322     0.18250     2.99424
H      1.90206     0.73804    -2.69370
C      1.27640    -0.08673    -2.31742
H      0.46700    -0.25383    -3.04849
C      0.71673     0.22663    -0.95231
H      1.90442    -0.99221    -2.28312
H      0.17254     2.52865    -1.10199
H     -0.48706     2.15161     1.51615
H     -0.94432    -1.24240    -0.67897
C      0.32744     1.60804    -0.53402
C     -0.06853    -0.80319    -0.15782
C      1.62468     1.05344    -0.03703
