 13
no_name:-307.202464907469
C      0.48965     0.39343    -0.90181
C      0.57842    -0.94381    -1.37698
H      1.46074    -0.51657    -3.28596
H      1.13962    -2.32203    -2.92453
C     -0.91202     1.43786     2.68879
C     -1.72816     1.25811     3.74909
H     -2.52121     0.66528     4.20709
C      1.08842    -1.28130    -2.59740
C      0.00416     0.73957     0.34354
C     -0.43564     1.06693     1.45281
H      0.21751    -1.73410    -0.70984
H      0.84065     1.20146    -1.55658
C     -0.86542     2.35589     3.81442
