  9
no_name:-304.490262716803
C     -0.16959    -0.48184    -1.09963
C      0.80499    -1.58349    -0.92775
C      1.04195     0.01508    -0.27670
C      0.57104     1.17646     0.35921
C     -0.20130     2.17115     0.99850
C     -0.81845     0.98979     0.63045
C      0.19767    -1.12308     0.34217
C     -1.12276    -0.37857     0.09927
H     -2.10834    -0.85019     0.14013
