 10
no_name:-230.555100351572
C     -1.62636    -0.17077    -0.56161
C     -0.64875     0.09283     0.39929
H      2.34931    -0.55250    -0.45949
H      2.81804     0.05457     1.25437
H     -3.18214    -0.62039    -2.18133
H     -0.66003     0.92390     2.56812
C      2.04613    -0.14983     0.50897
C      0.76256     0.08892     0.77838
C     -2.44792    -0.40668    -1.42674
C     -0.31375     0.52314     1.61662
