 13
no_name:-382.037821946841
H     -4.73348     1.71697    -0.80243
C      2.75789    -1.73668     1.02384
C      3.81312    -2.47142     1.43549
C     -2.29538     1.76144    -0.93566
H      5.61126    -3.72369     2.13724
C      4.77313    -3.13896     1.80893
C      1.77838    -1.05830     0.64553
C     -3.71573     2.02452    -1.03861
C     -0.25377     0.34848    -0.14251
C     -2.89804     2.88929    -1.61471
H     -2.76109     3.80207    -2.19290
C     -1.26617     1.05343    -0.53919
C      0.74496    -0.33927     0.24170
