 15
no_name:-308.542272462824
C     -0.76363     1.54878     0.32072
C     -0.27069    -1.23510    -2.20448
C     -0.35659     0.37189    -0.33951
H     -1.43375     2.30028    -0.09977
H     -0.31601     2.40874     2.33836
C      0.56685    -0.38214     0.59877
H      0.46326    -3.18682    -3.16307
H     -1.39855     0.59215    -2.19785
H      0.18103    -1.39513     0.81605
C     -0.16488     1.60075     1.61996
C      0.61743     0.49291     1.82034
C      0.11971    -2.27838    -2.70601
H      1.19529     0.26260     2.71614
H      1.56317    -0.53612     0.14492
C     -0.72199    -0.04238    -1.61476
