  8
no_name:-229.184437700367
C      1.19717    -0.15169     0.67556
C     -0.28857     0.61924    -1.18944
C     -1.12106    -0.01423    -0.09726
H      2.11851    -0.32587     1.22254
C     -2.35858     0.05227    -0.49753
C      0.89751     0.44116    -0.57758
C     -0.10021    -0.39655     0.88827
H     -0.54682     1.06664    -2.14254
