 12
no_name:-306.619961194509
H      1.56044     1.53727     2.48603
C     -0.46375     1.62068    -0.25030
C      0.87224    -0.11710     1.29046
C     -0.18219    -1.61287    -0.48363
C      0.46833    -1.08392     0.54603
H      0.19572     3.21066     1.04448
C     -0.96666    -0.62149    -1.35069
H     -0.19163    -2.67375    -0.74865
H     -1.55526    -1.00035    -2.19081
C     -0.86756     0.65415    -0.99517
C      0.97160     1.15849     1.64604
C      0.18656     2.14980     0.77938
