 10
no_name:-193.113514868222
H     -0.77645     2.29416    -0.35644
C      0.51039    -0.68792     0.23108
C      1.42835    -1.40520     0.82770
H      1.16867    -2.22061     1.51708
C     -1.27036     1.31637    -0.23441
C     -0.42118     0.05492    -0.35375
H     -1.71710     0.08893    -2.32312
H     -2.09067     1.32827     0.50170
H      2.50017    -1.22750     0.66293
C     -1.29516     0.35155    -1.35714
