 15
no_name:-233.669959560352
H      1.26635     2.10227     0.26596
C      1.35445    -0.02007     0.43612
C      0.63751     1.20298     0.22419
C     -0.69908     1.43731     0.06470
C      0.19972    -1.69950    -1.02401
C      1.07715    -1.32824    -0.03919
H      2.29571     0.08618     0.98808
H      0.10448    -2.74696    -1.31994
H     -2.63363     0.91223     0.81295
H     -0.98679     2.48290    -0.09957
H      1.70087    -2.12092     0.39301
C     -1.83623     0.47203     0.18983
H     -0.39392    -0.96735    -1.57410
H     -1.53037    -0.48389     0.63480
H     -2.29957     0.25068    -0.78972
