  8
no_name:-266.471795766965
C      1.43049     0.68727    -0.21956
C      0.42517     0.58355     0.76255
C     -0.44315    -0.86264    -1.16008
C      0.80948    -0.53823    -0.53295
C     -1.27863    -0.20806    -0.24799
C     -1.00092     0.76418     0.71960
C      0.21150    -0.92694     0.81716
H      1.90131     1.49460    -0.77891
