 15
no_name:-308.454269009522
H      0.47460    -1.81723     4.02245
C      0.79307    -0.78012     2.19330
H     -0.51602    -2.42321     2.54581
C      0.23540     0.01538    -1.66593
H     -1.58538     1.72546    -0.41311
H      0.79623    -0.57602    -2.40496
H     -2.49266     2.17994    -1.98349
H      2.39043     0.98513     2.40115
H     -1.01675     0.74455    -3.28821
C      0.60674    -0.05593    -0.40151
C     -0.87390     0.82348    -2.20467
C      0.21595    -1.72975     2.96418
C      0.92989    -0.13543     0.87293
C     -1.69229     1.61717    -1.49707
C      1.65664     0.28900     1.99894
