 11
no_name:-193.686193000951
C     -0.02960     0.35871     0.54604
C     -1.19642    -0.14898    -1.60812
H      1.11502    -0.27896     2.38633
H     -2.16740    -0.26074    -1.11537
H      2.13753    -0.19581     0.86899
C     -0.08862     0.14759    -0.91879
H     -1.16587    -0.29339    -2.69092
C      1.19827     0.10060     1.35973
H     -0.99404     0.25530     1.06443
H      0.86488     0.24823    -1.45122
C      0.79085     1.50447     1.10498
