 11
no_name:-193.691165377334
H      1.76416     0.71584    -0.88741
H     -0.97972    -2.19467    -1.35568
H     -1.89643    -0.08564     0.32487
C      0.14235    -0.73974    -0.42866
C     -0.09214    -1.54818    -1.54520
H      0.25256     1.23094     1.77000
C      0.16249     1.07597     0.67970
C      1.26853     0.22853    -0.03471
H     -0.00635     2.06179     0.21107
C     -0.80540    -0.00356     0.26882
H      2.02845    -0.19835     0.63797
