  8
no_name:-191.744421161218
H     -0.32696     1.08260     1.58072
C     -0.38500    -0.84656     0.37390
C      0.54773    -1.00729    -0.62563
C     -0.38535     0.69694     0.54937
C      0.93951     0.19950    -0.09182
H      0.97256    -1.81096    -1.22203
H     -1.89030     2.24173    -0.26965
C     -1.23203     1.37502    -0.33485
