 17
no_name:-347.258469944921
H      2.73216     2.40844     1.12442
H     -1.57621     0.92707    -1.64078
C      0.15232     0.86960    -0.28120
C      0.95787     2.06607    -0.11689
H     -2.27323    -2.83140    -0.73734
H     -2.89225    -1.40012    -1.76552
C     -2.16206    -1.78994    -1.05103
H      0.80530     3.02748    -0.60446
C     -1.16847    -1.01603    -0.57923
H      2.47768    -0.16650     1.91634
C     -0.08510    -1.44171     0.42314
H     -0.53906    -1.77769     1.37162
C     -0.93773     0.38535    -0.93891
C      0.72895    -0.18823     0.57159
C      1.94592     1.73628     0.77426
C      1.81058     0.32918     1.21027
H      0.49846    -2.29281     0.03116
