 17
no_name:-309.696038693136
C      1.28527     0.49793     1.91615
H      0.80362    -0.80176    -2.55729
H     -2.13517    -1.18962     0.67294
C      2.32070     0.97952     2.33644
H      2.19001    -0.60021    -1.31469
C     -1.64162    -0.67936    -0.16283
H      3.23392     1.40685     2.70523
C     -0.38545    -0.01191     0.17241
H     -1.79136    -0.23517    -2.25011
C     -2.22765    -0.71775    -1.37179
C      0.07740    -0.08344     1.45177
H     -0.51294    -0.63464     2.19342
C      0.40333     0.70324    -0.91559
H     -0.29882     1.24668    -1.56919
H     -3.17387    -1.24378    -1.52006
H      1.05392     1.45007    -0.43520
C      1.23038    -0.25793    -1.71069
