 16
no_name:-346.559365642545
H     -1.14047     2.10660     1.13268
H     -2.99203    -1.41279    -1.39289
H      1.23883     3.26123     0.54989
C     -1.55282    -0.43560    -0.21123
H     -3.08821    -1.71120     0.44989
C      1.69069     1.14252     0.22375
C      1.38677    -1.33670    -0.19943
C     -0.55598     1.86604     0.22592
C     -2.58770    -1.21244    -0.39129
C      1.80508    -2.47126    -0.36746
C      0.89401     2.24334     0.36378
H      2.17070    -3.46961    -0.51540
C     -0.50272     0.35715    -0.02125
C      0.90055    -0.03443    -0.01176
H      2.78010     1.12880     0.27839
H     -1.05000     2.39566    -0.60896
