  9
no_name:-229.913596899916
C      0.34380     1.04602    -0.58143
H     -1.42799     0.43018    -1.76826
C      1.11434     0.65194     0.52417
H      1.98667     1.18429     0.90506
C      0.61268    -0.50651     1.06353
C     -0.74999     0.24004    -0.93547
C     -0.84800    -0.82909    -0.07999
C     -0.33500    -1.47518     0.99703
H     -0.57802    -2.37831     1.56249
