  8
no_name:-191.841078637145
C     -0.42553    -0.20286    -0.53600
H     -1.90775     1.61523    -0.59848
C      0.73771    -0.25077     0.20585
C     -1.87832     0.52850    -0.42835
H      2.64349    -0.29609     1.48003
C     -1.33031    -0.38191    -1.44753
C      1.74807    -0.27254     0.88718
H     -2.56969     0.16070     0.34464
