 11
no_name:-343.345478430676
C      0.63402    -0.48709     1.16754
C      0.03694    -1.14546    -1.23224
H     -0.30303     2.77046     1.06732
C     -0.00443    -2.10278    -2.18611
C     -0.01130    -2.99620    -3.09691
H      0.66143     1.15028     2.65093
C      0.42387     0.81839     1.63705
C     -0.41896     1.28125    -0.56074
C      0.48475    -1.16200     0.13504
C     -0.12779     1.74545     0.73092
C     -0.35078     0.24031    -1.23579
