 10
no_name:-230.482497753944
C      0.46290     1.25368     0.11830
H      1.19143    -0.55685    -2.26632
H     -1.68610    -1.61499     0.79176
H      0.09812     2.16815    -0.35637
C     -0.94293    -1.06805     0.20569
C      0.78433    -0.77547    -1.27668
H     -0.02527    -0.02628     1.92406
C     -0.09337     0.02222     0.82995
C      1.06319     0.08314    -0.11045
C     -0.35227    -1.46554    -0.95916
