  8
no_name:-229.17471163647
C      2.00953     1.10175     1.05326
C     -0.28635     0.02888     0.78744
C     -0.64776    -0.04078    -0.59132
C      1.29536     0.02328     1.19786
C     -0.97856    -0.11572    -1.75576
H     -1.26432    -0.17984    -2.79009
C      0.47835    -1.06203     1.44282
H     -0.89359     0.68534     1.42766
