  9
no_name:-304.477719057619
C      0.07682     0.91007     0.60740
C     -1.40869    -0.59879    -0.09827
C     -0.19674    -1.39456    -0.38760
C      0.56721    -0.38091    -1.14601
C      0.48197    -1.26222     0.91939
C     -0.58003     0.49222    -0.71877
C      1.15220    -0.11614     0.21383
H      0.19531     1.90521     1.03743
C     -0.65861    -0.31582     1.17375
