 10
no_name:-305.330287067544
H     -3.80679     2.12262    -0.09232
C      1.11212    -0.69297     0.16807
C      2.12511    -1.47100     0.61646
C     -1.76163     1.51920    -1.08540
H      3.84448    -2.79233     1.37734
C      3.04052    -2.17484     1.02157
C      0.18806     0.02555    -0.24591
C     -3.07230     2.13489    -0.89373
C     -0.80815     0.79110    -0.68327
C     -2.53735     2.43912    -2.05274
