 15
no_name:-345.885417655997
C      1.13431     0.27686     0.91375
C     -1.83960     1.19388    -0.84211
C     -0.37066     0.13920     0.79090
H      3.30479    -2.72816     1.30961
H     -0.51976     2.42202     0.56703
H     -2.33624    -0.66374    -1.90968
C      1.96546    -0.89412     1.05435
C     -1.70192    -0.08736    -1.23805
C      2.67321    -1.86828     1.18821
H     -0.08178    -1.60622    -0.67452
C     -0.69584     1.46412     0.07287
H     -2.61241     1.91127    -1.11370
C     -0.47423    -0.59438    -0.56296
C      0.48645     0.60449    -0.41761
H      1.47486     1.14613     1.48951
