  7
no_name:-153.869988833513
C      0.06515    -0.15102    -0.02289
C     -0.69679    -0.21437    -1.10582
H      0.65765     0.71515     1.80970
C      0.80777    -0.07287     1.05679
H      1.61542    -0.79127     1.26089
H     -2.02047    -0.33310    -3.00198
C     -1.40894    -0.27691    -2.12134
