 19
no_name:-385.688268733754
C     -2.17718     1.26284     0.93171
C     -1.83681     0.55644    -0.24729
C      0.34778    -0.68060    -0.98324
C     -1.00406     1.13504     1.83489
H     -0.96322     1.57017     2.83532
H      1.20739     1.62319     0.95748
H      2.23192    -0.69424     0.02761
C      1.69307    -1.03535    -0.86600
C     -0.40274     0.09665     0.00891
H      1.91554    -2.15381    -2.69902
H      3.45179    -2.02703    -1.63964
C      2.39766    -1.78403    -1.78917
H      0.16138    -0.96739     2.11597
H     -0.22192    -1.00855    -1.85814
H     -3.54921     0.65813    -1.62017
H     -3.12778     1.74293     1.15942
C     -0.24385    -0.14456     1.52729
C      0.26197     1.08169     0.96531
C     -2.63669     0.16051    -1.27105
