 13
no_name:-344.62893910009
C      0.47130    -0.19953    -0.29234
H     -2.65983     1.76911     2.53527
C      2.48715    -0.43139    -1.90638
C     -0.59622    -0.07990     0.60716
C      3.43768    -0.54050    -2.66411
H      4.27537    -0.63522    -3.32960
H     -1.92800    -1.76576    -0.04480
C     -2.12772     1.09281     1.87006
C      1.42346    -0.30894    -1.06154
C     -2.66868     0.08240     1.00558
C     -0.82195     1.11845     1.45259
C     -1.77476    -0.87938     0.56637
H     -0.08772     1.91758     1.56975
