 12
no_name:-194.38038253405
H     -0.45526     0.73606    -1.57708
H      0.32030    -1.64562    -1.14475
C      1.01948    -0.79583    -1.11286
H      1.51703    -0.72045    -2.09247
H      1.78450    -1.01720    -0.35273
C     -0.40250     0.48783     0.50760
H     -1.48653    -0.43468     3.49437
C     -0.96954     0.45359     1.60363
C      0.28026     0.51037    -0.78203
H      0.99379     1.35626    -0.79674
H     -2.22921     1.25301     3.15424
C     -1.60033     0.42131     2.82239
