 10
no_name:-267.897437663692
C      1.80340    -0.39110     0.39635
C      1.42921    -1.21225    -0.63957
H      2.78017    -0.28443     0.86377
H     -2.75223     0.50363    -0.25048
C     -1.86117     0.74228     0.33023
C     -0.63615     0.09945     0.06176
H     -1.91105     1.48334     1.12810
C      0.52426    -1.70918    -1.51089
C      0.62067     0.26725     0.69614
C     -0.31197    -0.86846    -0.88635
