  9
no_name:-304.642947153511
C     -0.38036     0.59794     0.95884
C     -1.23024    -0.21525    -1.40894
C      1.95864     0.25509     2.05085
C     -1.24434    -0.73126    -2.50969
H     -1.26161    -1.18859    -3.48305
C      0.79965     0.43294     1.52509
C      3.13943     0.07234     2.57828
C     -1.21337     0.37780    -0.14995
C     -1.76908     1.07763     0.89385
