 18
no_name:-310.298438117427
C     -0.94405    -1.16034     0.84224
C     -0.33819     0.20526     0.52779
H     -2.79161     0.27253     0.49015
H     -1.67097    -0.86168     3.05728
H      1.82805    -0.90987    -0.78057
C     -1.16967    -0.45884     2.17438
H     -0.05947     1.49578     2.35765
H     -0.02314     0.40262    -2.94454
C      0.12379    -0.13148    -2.00179
H     -0.41591    -1.08059    -1.93689
C      0.26437     0.68439    -0.73983
H      2.24525     0.56925    -1.79299
H      0.24718     1.77367    -0.86411
H      1.02628     0.03679     2.31544
H     -0.97761    -2.16422     0.42986
C      1.46308    -0.03094    -1.31966
C      0.05415     0.45646     2.00130
C     -1.81329     0.00298     0.87586
