  7
no_name:-228.583140328967
C     -0.14111     0.42005     0.79320
C      0.24679    -0.67837    -1.52187
C     -0.07552     0.30370     2.20281
C      0.06409    -0.16060    -0.42746
H      0.40878    -1.13696    -2.48082
C     -0.56178     1.55431     1.52744
C     -0.50109     1.45252     2.96454
