 10
no_name:-267.838271877703
H      1.11260     1.39130     1.50632
C      0.89661     0.52421     0.88889
C      1.47781    -0.79218     0.68387
C     -1.51257     0.65868    -0.26241
C     -0.25721     0.10359     0.06974
C      0.54137    -1.04634    -0.39832
H     -3.57602     1.52063    -0.74735
C      1.17590     0.37322    -0.65453
H      0.38353    -1.82962    -1.13406
C     -2.61144     1.11080    -0.51163
