 12
no_name:-306.551356158118
C     -0.52539     1.36423    -0.97603
C      0.36583     0.57503    -0.25072
H     -1.09974    -3.15328     0.02991
H      2.47068    -0.36458    -0.38927
H      0.68244     0.44008     2.00034
H     -2.03596     2.64942    -2.12059
C      1.48281    -0.05829    -0.05677
C      0.50816    -0.15811     1.09436
C     -1.33070     2.04434    -1.58111
C     -0.24264    -1.38804     1.31618
C     -0.83001    -2.49806     0.85950
C     -0.88576    -2.25513     2.25008
