 10
no_name:-193.135805892606
C      0.11015     0.44585    -0.73842
H     -0.97707     2.30751    -0.63641
H      1.53076    -2.96718     2.56455
H      0.77225     0.67362    -1.59115
C      0.87036    -1.37417     1.01838
C      1.22351    -2.22827     1.84923
C     -1.18105     1.22351    -0.68575
H     -1.79033     0.94096     0.18434
H     -1.77287     1.05182    -1.60184
C      0.49824    -0.46240     0.13195
