 19
no_name:-385.804313181847
C      1.05357    -0.20415     0.73620
H      0.54870    -2.20517     0.13116
H     -4.38332    -1.86789    -3.47323
H      2.11526    -2.05777     0.97935
C      2.12254     0.68273     0.63179
C      1.08390    -1.67680     0.94102
C     -2.89802    -0.97515    -1.97320
C     -3.68776    -1.45061    -2.76997
C      1.69997     1.99400     0.44148
C     -2.00762    -0.44138    -1.07591
C      0.20013     2.05139     0.33820
H      0.57680    -1.96428     1.88212
H      2.34945     2.86364     0.33191
H      3.16909     0.37350     0.69597
C     -0.25374     0.58732     0.66901
H     -0.72345     0.56609     1.67458
C     -1.22018     0.03244    -0.27337
H     -0.25742     2.78499     1.02366
H     -0.12326     2.33691    -0.67939
