 16
no_name:-309.035751987225
C     -0.69902     1.12980     0.27409
C     -0.39698    -0.15709     0.18934
H     -0.20156     4.07641    -1.46070
H     -0.83954    -2.09913    -0.38695
C     -0.11109    -1.43835     0.10564
H      1.82626    -1.39102     1.11166
H      2.29790    -3.79669     0.92500
H     -2.03993     4.82697    -0.07216
C     -0.63987     3.43684    -0.67488
C      1.37473    -3.37168     0.52405
C     -0.25691     2.10173    -0.69273
H      0.39289     1.73833    -1.49816
C      1.11038    -2.05984     0.62223
H      0.67453    -4.06076     0.04113
H     -1.30188     1.53435     1.10085
C     -1.59636     3.86505     0.26974
