 12
no_name:-231.79944231774
C     -1.78721    -0.68986    -1.78243
H     -0.30576     2.04185    -0.97989
C     -0.95719     0.07816    -1.34917
H     -0.66658     0.94630     1.25562
C      0.88135    -0.46605     1.05555
C      0.03180     1.00559    -0.80458
H      1.82764    -2.48305     1.56101
H     -2.51494    -1.37629    -2.17207
C      0.28570     0.82318     0.71188
H      0.95123     1.63442     1.05444
C      1.38670    -1.53399     1.32128
H      0.98520     0.88890    -1.34783
