 14
no_name:-382.701007903247
H      1.59312     1.67939     2.78343
C     -1.12940     1.47507    -1.81650
C      1.29618    -0.45488     2.22872
C     -0.46162    -1.88894    -0.77487
C      0.16633    -1.13898     0.30350
H      0.34207     2.32087     0.68364
C     -1.00416    -1.02604    -1.67364
H     -0.48852    -2.97610    -0.84490
H     -1.54102    -1.26927    -2.58779
C     -0.75549     0.36436    -1.21744
C      1.20184     0.92287     2.10213
C      0.49758     1.26524     0.92050
C      0.00419     0.27174     0.06223
C      0.86606    -1.36601     1.47959
