 10
no_name:-155.654762593618
C      0.59608     0.26952     0.09879
H     -0.12240     0.28077    -2.12342
H      0.12583    -1.65092     1.34234
H     -1.09008    -0.36053     1.38318
C     -0.42545     0.20078    -1.06496
H      1.57750    -0.13035    -0.19459
C     -0.29478    -0.81482     0.75703
H     -1.25538     0.92263    -0.91970
H      0.75005     1.22705     0.62194
C     -0.94362    -1.13390    -0.57315
