 12
no_name:-306.629139378639
C      1.18409     0.93701    -0.03033
C      0.24070    -1.69489     0.14098
H      2.27377     0.86984    -0.08153
C      0.56781     2.26377    -0.06222
H     -1.90869    -2.36458     0.28027
C     -1.11149    -1.62495     0.20512
C     -1.56256     1.16249     0.09584
C     -0.79147     2.17515     0.00963
H      0.95478    -2.51930     0.14431
C     -1.06030    -0.10025     0.13044
C      0.37801    -0.16636     0.06181
H      1.17704     3.16584    -0.13534
