  8
no_name:-154.530163980347
C      0.45080    -0.63260     0.01030
C     -0.92063    -0.27324     0.16997
H     -3.12802     0.26394     0.44611
C      1.41670     0.20689    -0.39933
H      2.44956    -0.13576    -0.49984
C     -2.09370     0.00510     0.31914
H      1.20018     1.25059    -0.64232
H      0.70551    -1.67376     0.24545
