 14
no_name:-307.880499593363
H      2.53029     2.94990    -1.28553
C      1.53981     1.41618    -0.24034
H      3.35405     2.34572     0.28011
C      0.25166    -0.82227    -0.42828
C      0.55763     0.56549    -0.05245
H      0.79748    -1.57148    -1.00469
C     -1.99433    -1.75879     0.38672
H     -3.70608    -3.24415     0.72014
C     -2.90679    -2.54283     0.57015
H     -1.52569     1.34728     0.26560
C     -0.95817    -0.82142     0.20655
H     -0.73360     0.76346     1.77713
C      2.51388     2.27253    -0.42216
C     -0.80240     0.62977     0.68549
