 10
no_name:-193.092095472725
C      0.92485     0.18051    -0.29407
C     -0.52723     0.33664    -0.30715
C      1.07882    -0.51430     0.98294
H      1.60137     0.16778    -1.15404
H     -2.58122     0.70292    -0.62193
H      1.25102    -0.19652     2.01712
H     -0.29354    -1.94553    -0.18864
C     -0.09088    -0.95223     0.22324
H     -1.39551     2.02581    -1.22655
C     -1.55617     1.06020    -0.74217
