  8
no_name:-154.440671897869
C     -0.45303    -0.49947     0.38034
H     -0.66495     1.80368    -0.40261
H      1.84575     0.17673     0.85086
H     -1.13412    -1.09679     0.96909
C     -0.23877     0.82348    -0.24501
C      0.90591     0.08171     0.32648
H      0.42463    -0.87723    -1.86720
C      0.25745    -0.39944    -0.91271
