 19
no_name:-385.833022095398
C      0.57887     0.24920    -1.75488
C      0.83507    -1.18943    -1.52813
H      1.57583     2.22695    -1.39501
H     -2.67724     1.99243     3.03045
H     -0.82188     1.79834    -0.91612
C     -0.12978     1.00173    -0.62985
C     -0.53066     0.24057     0.57918
C     -1.34052     0.89330     1.52165
H     -0.00554    -2.84722     2.04503
H      0.81328    -2.84827    -0.21674
C     -0.09547    -1.11846     0.77212
C     -2.05439     1.48241     2.32041
H      2.07314     0.88830    -0.22218
C      0.57032    -1.79089    -0.35344
H     -0.84224    -1.34181     2.78161
H      0.33343     0.53990    -2.78129
H      1.26702    -1.76560    -2.35176
C      1.33165     1.26782    -0.93041
C     -0.33020    -1.80963     1.93900
