 16
no_name:-384.000020903066
H      0.38507     1.99571     2.02533
C     -1.30511    -0.77848     1.23921
C     -0.02907     1.10991     1.54395
C      2.05663     1.77958    -1.33382
C      0.23855    -1.24275    -2.24124
C     -0.51232    -1.37656    -1.05099
C      1.25161     1.25277    -0.59049
H     -1.19088    -2.23821    -1.01537
H     -2.00435    -1.60504     1.36297
C      0.31396     0.66145     0.29130
C     -0.48775    -0.56507     0.04160
H      1.39971    -1.12818    -4.21095
H      2.77094     2.23079    -1.99558
C     -1.02933     0.21755     2.12590
H     -1.47228     0.34498     3.11413
C      0.84542    -1.20090    -3.29399
