 10
no_name:-155.756447205651
H     -1.41979     0.70559     0.90657
H     -1.82260    -0.34748    -0.46987
C     -1.21900    -0.27487     0.44795
H      0.46295    -1.44025    -0.29044
C      0.27654    -0.43806     0.13535
H      0.86164    -0.39503     1.07144
H      1.55391     2.16504    -2.23991
H     -1.55446    -1.05820     1.14557
C      0.78924     0.57229    -0.79053
C      1.19189     1.41863    -1.55851
