  7
no_name:-153.816665300672
C      0.87109     1.07635    -0.22773
C      1.21489     0.10143     0.58624
C     -1.20958    -0.65155    -0.27103
H      1.95069    -0.32673     1.26607
C     -0.08948    -0.02415    -0.05348
H     -2.12665    -0.54819    -0.84322
H      1.11449     2.02621    -0.70150
