 16
no_name:-309.108543959564
C     -1.70737    -0.47795    -2.95830
C      0.68633     0.40701     0.15558
H      2.35511    -0.53340     1.31475
H      1.50237     1.59158     2.53382
H     -3.07269    -0.98210    -4.72941
C     -2.43418    -0.74937    -3.89850
C      0.23326     0.11418     1.58332
C      0.51785     1.11674     2.67631
H     -0.74152    -0.38067     1.64979
H      1.11095    -1.73475     0.67737
C     -0.16040     0.09545    -0.95846
C     -0.89203    -0.17891    -1.89756
H     -0.24240     1.91456     2.69490
C      1.32911    -0.70685     0.97676
H      1.29086     1.31372     0.03128
H      0.52225     0.62961     3.66559
