  9
no_name:-267.288860346128
C      0.96622    -0.33608     0.25000
H      3.20367     0.60221     0.30651
C     -0.29163     0.08021     0.13330
C      2.37101    -0.10080     0.31755
C     -2.73025     0.87936    -0.10290
C     -3.94153     1.27691    -0.21125
C     -1.48489     0.47078     0.01713
H      2.18178    -2.41961     0.51535
C      1.94472    -1.36170     0.40469
