 12
no_name:-306.548107121753
H      1.36549     1.95253    -0.44857
C      0.25448    -1.76251     0.82310
C     -0.54121     0.61246    -1.03199
H     -0.83544    -1.70463     2.84030
C      0.71874     1.08142    -0.36466
C     -0.48366     0.77215     0.43484
C     -0.53268    -1.20756     1.91951
H     -1.20012     0.99717    -1.80782
H      1.22290    -0.21509    -2.09338
C      0.72145    -0.25135    -1.12096
C     -0.76485     0.03576     1.48359
C      0.72729    -1.46537    -0.27952
