 15
no_name:-308.409020542559
H     -0.64067    -1.87521     1.66224
C      0.01286    -0.99963     1.51307
C      0.21746    -0.37106     0.19544
H     -1.63998     0.90097    -3.28868
H     -0.48222     1.73103     0.59265
H     -0.79225    -1.56559    -1.58565
C     -0.61340     0.71868    -1.40747
H     -1.12556     2.51346    -2.48572
C     -0.49143    -0.64347    -1.08307
H      1.85697    -1.00573     2.95150
H      1.08638     1.63952    -0.29262
C      1.33413    -0.86236     2.00807
C      0.11298     1.15090    -0.12960
C      1.61849    -0.94163     0.66998
C     -1.15916     1.42170    -2.45617
