 16
no_name:-309.08508545144
H     -1.83448     0.76514    -0.58079
C      0.23506     0.54405    -0.32516
H     -2.85856    -2.69435     0.70931
C     -1.39504    -1.21824     0.24272
H      2.04726    -0.86324     0.38249
C      0.98168     1.77737    -0.75564
H      0.67739     2.74226    -1.16461
H     -0.56541    -1.85998     0.56517
H     -3.50864    -1.08656     0.01815
H      2.94602     0.88145    -1.92099
C     -2.65024    -1.69160     0.32822
H      2.71315     2.03081     0.96398
C      1.63135     0.06160    -0.01981
C     -1.02814     0.10035    -0.25124
C      2.12950     1.49274     0.22317
C      2.23664     0.96433    -1.10315
