 18
no_name:-385.176441438281
C      2.89663     2.57120    -0.02525
C      0.58954    -0.65323    -0.69144
H     -3.12675    -1.54344     2.01162
H      0.56244    -0.63964    -2.85577
H      1.78654    -1.71718    -2.14736
H     -0.80577    -2.22023     1.85942
H     -4.17209     0.20557     0.67000
C     -0.27095    -1.07011     0.22523
H      4.21580     4.41235     0.33120
H     -2.57311     0.48291    -0.25673
C      2.10969     1.47206    -0.24154
C     -1.14198    -1.47745     1.12267
C      3.59772     3.55050     0.16422
C      1.40390     0.49068    -0.42951
H      0.06042    -2.19494    -2.12210
C     -2.54200    -1.02719     1.24271
C     -3.12515    -0.06502     0.51351
C      0.75442    -1.34784    -2.03377
