 15
no_name:-271.109853237569
C     -1.51643     1.48531     1.63588
C     -0.96168     0.55360     1.08203
C      0.58879    -0.45834    -0.53777
C     -2.17442     2.60801     2.29120
H     -2.90452     2.26251     3.04201
H     -2.71475     3.23597     1.56223
H      0.92009    -2.59145    -0.77859
C      1.22119    -1.60666    -1.15730
C     -0.32833    -0.55185     0.45713
H      2.45685    -0.56707    -2.54607
H      2.58094    -2.42946    -2.57789
C      2.13280    -1.53241    -2.14383
H     -0.61179    -1.54992     0.81702
H      0.87670     0.53413    -0.90237
H     -1.44353     3.25403     2.80724
