 14
no_name:-307.843646495965
H      2.80583     3.38485     0.38767
H     -3.34678    -0.09877    -2.88880
C     -1.74965     0.06904    -1.25457
H     -0.16020    -2.68205     1.03416
C      1.20683     1.74523     0.32263
C      2.06087     2.61152     0.36664
H      1.07473    -1.91180     0.00070
C     -0.79297     0.14324    -0.24464
H      1.24589    -1.88254     1.77730
C      0.24886     0.73392     0.31108
C     -2.60263    -0.02541    -2.11788
C      0.52094    -1.81874     0.94838
H     -0.82640    -0.37039     1.93263
C     -0.24933    -0.51415     1.00350
