 10
no_name:-305.328662191522
C     -0.80304    -0.68766     0.37862
H     -0.99746     1.41640    -3.82576
C      1.33197    -0.10479     1.57434
H      2.20684     0.06415     2.19841
C      1.04595     0.39751     0.31116
C     -0.44079     0.63776    -1.74954
C      0.21886    -0.86440     1.81680
C     -0.73762     1.04998    -2.84994
C     -0.98551    -1.38809     1.51215
C     -0.09928     0.15207    -0.45799
