 18
no_name:-310.390748620418
C     -1.99549     1.31930    -0.19367
C     -0.88156     0.43316    -0.04691
C      1.43886    -1.26173    -0.14665
H      0.43867     1.96092     0.68812
C      0.06919    -1.89290     0.12582
H      2.24271    -1.94327     0.17550
H      0.77234     1.44917    -0.96093
H     -3.72974     2.79540    -0.42073
H      2.56292     0.52211     0.41062
C     -2.91246     2.10764    -0.31412
C      1.55776     0.09354     0.55387
C     -1.05731    -0.90592     0.00293
H     -0.11073    -2.74191    -0.55735
H     -2.07641    -1.30239    -0.04473
C      0.49624     1.07028     0.04088
H      1.42765    -0.04865     1.64190
H      1.56382    -1.11802    -1.23498
H      0.04880    -2.33349     1.14265
