 15
no_name:-345.926011961173
C      1.37976     0.06845     1.83065
H      0.53423    -0.96943    -2.62296
C      0.97351    -0.51210    -0.54570
H      2.67406     0.21999     3.71243
C      0.08890    -0.62986    -1.68373
H     -1.89100    -0.76878    -2.46130
C      2.06519     0.15131     2.83069
C     -1.26867    -0.46793    -1.61092
C      0.56028    -0.01156     0.67092
C     -0.79808     0.47284     0.61692
C     -1.88670    -0.05204    -0.33881
H      2.01002    -0.84089    -0.65356
C     -1.67786     1.34135     0.21277
H     -1.90236     2.38970     0.02787
H     -2.73477    -0.65379     0.02625
