 14
no_name:-382.725496762596
C      1.73174    -0.24534     0.28267
C      1.93538    -1.14102    -0.74716
H      2.57416     0.02879     0.92322
H     -2.82908     0.51963    -0.41800
C     -1.83075     0.57638     0.01072
C     -0.70774    -0.11082    -0.43015
H     -2.11319     2.01866     1.68108
C      0.76306    -1.59593    -1.73010
C      0.45714     0.29742     0.49130
C     -0.31560    -1.01179    -1.39797
C     -0.07200     1.20886     1.42096
C     -1.43572     1.36749     1.12491
C      2.11001    -2.00493    -1.75003
H      0.47515     1.70121     2.22339
