 17
no_name:-347.256311938302
H      2.86525     2.20757     1.14099
H     -1.44180     0.79203    -1.90283
C      0.18449     0.79584    -0.40917
C      1.10848     1.98429    -0.32885
H     -2.37528    -2.79324    -0.44507
H     -2.88386    -1.53438    -1.72928
C     -2.20791    -1.82205    -0.91920
H      0.57882     2.92701    -0.09734
C     -1.20759    -1.01077    -0.52048
H      2.28460    -0.13749     2.12453
C     -0.22834    -1.27948     0.55596
H     -0.20845    -2.18553     1.16064
C     -0.88629     0.32521    -1.08925
C      0.59516    -0.19650     0.61089
C      2.04549     1.57146     0.79913
C      1.74555     0.35269     1.31217
H      1.65803     2.16692    -1.27093
