  9
no_name:-229.813239950113
C     -0.85830    -0.38101    -0.15364
C      0.95316     0.69963    -0.31877
C      0.65637    -0.81146    -0.26864
C     -0.34658     1.05156    -0.28972
H      1.89343     1.24954    -0.36621
H     -0.88486     2.00071    -0.29897
C     -0.08719    -1.27020     0.88441
C     -1.41110    -1.15380     1.01038
H      0.97581    -1.51839    -1.04171
