 10
no_name:-267.859422173661
H      1.47935     2.94409     0.68426
C     -1.11598    -0.87736     0.11794
C     -0.15762    -0.10950     0.73915
C      0.98822     0.66373     0.65936
H     -2.35186    -2.18287    -1.07388
C      1.61172     1.86288     0.63779
C     -1.64643    -1.34815    -1.08497
H     -1.35998    -0.90550    -2.04163
C      2.43375     0.75237     0.51820
C     -1.14698    -0.78135     1.52859
