 13
no_name:-381.981717802143
C      1.95276     1.12087    -0.69157
H      1.73180     1.00232    -2.90393
C     -0.97738    -0.34104    -1.47023
C      1.52441     0.91386     0.49726
C     -0.59663    -0.18715     1.80193
C     -1.56486    -0.89203     1.10635
C     -1.06974    -1.18526    -0.24616
H     -0.71111     0.18759     2.82005
C      0.55259     0.05082     0.93060
C      0.50089    -0.36342    -1.60585
C      1.50324     0.62516    -1.90605
H     -2.54753    -1.14819     1.50315
C      0.29448    -0.77900    -0.24739
