 15
no_name:-345.791149253788
H     -1.10404     2.42231     1.59364
C      2.48503    -1.75453    -1.49130
H      4.25981    -3.18267    -1.75021
C      3.43074    -2.51199    -1.62654
C     -1.44339     0.74066     0.20452
C      0.48698    -0.12695    -1.20801
H     -0.24656     0.05496     1.93078
C     -1.28716     0.20669     1.62899
C      1.42497    -0.90064    -1.33659
H     -2.84829     1.79232     1.56359
H     -1.99070    -0.57728     1.92083
H     -0.58492     1.69848    -1.59551
C     -1.78468     1.58489     1.41445
C     -0.62014     0.75877    -1.02378
C     -2.08313     0.15393    -0.90399
