 11
no_name:-343.243471485723
C      0.74038     0.26183     0.14322
H     -1.07535    -0.97417    -2.15399
C      1.15867     0.68692     1.40949
C     -1.57938     0.31065     1.02557
H      1.89007    -0.57032    -1.73595
C     -0.46116    -0.63620    -1.32411
C      0.26190     0.94084     2.27376
C      1.00739    -0.43551    -1.11716
C     -0.73895     0.05940    -0.06489
C     -1.05206     0.76258     2.09003
C      0.28356    -1.54930    -0.31611
