 13
no_name:-269.85765663553
C     -0.45637     0.52939     0.02020
H     -0.34899    -1.12077    -1.48886
C      1.26866    -0.48993     1.41285
H     -1.93904     1.01053    -2.70801
H      3.07159    -1.85724     1.76271
H     -0.24421     0.89597     2.08725
C     -1.41811     0.83762    -1.76387
C      2.22356    -1.21992     1.59857
H     -2.29765     1.99026    -0.03311
C     -0.21445    -0.03009    -1.39155
H      0.75119     0.25263    -1.84399
C      0.14498     0.35767     1.21480
C     -1.58928     1.30195    -0.49994
