 11
no_name:-343.342144464791
C      0.53472    -0.46096    -0.12933
C      1.74051    -0.19792    -0.77201
C     -0.70595    -0.04090     0.24057
C     -1.67462     0.95797     0.24728
H      3.73794     0.18526    -1.82690
C      2.80089     0.00193    -1.33169
C     -0.29321    -1.35308     0.61105
H     -3.30315     2.56924     0.28209
C     -2.53965     1.81178     0.26702
C     -0.51557    -2.53126     1.20635
C     -0.74218    -3.66276     1.74350
