 16
no_name:-309.142098404903
H      2.27627     2.04531     3.07561
C     -1.17745    -1.33743    -0.08004
H      0.71534     2.05978    -1.14686
H     -2.00405    -2.05159    -0.04908
H     -0.48141    -1.42961    -2.14889
C     -0.07862    -1.40043    -1.12000
H      1.82813    -0.17789    -0.99225
C     -1.02080    -0.30854     0.76374
H     -1.66754    -0.06374     1.60843
C      0.74426    -0.14058    -0.86163
C      0.17032     0.53319     0.39962
H     -0.92526     1.25234    -1.42152
C      0.99058     1.11829     1.42751
H      0.53276    -2.31307    -0.99864
C      1.67061     1.61186     2.30265
C      0.07280     1.19213    -0.97677
