  9
no_name:-304.615555765006
H      2.34002     0.02844     1.17543
C     -1.11992    -0.09869     0.20419
C     -1.19434    -0.41327     1.50250
C      1.33049     0.01844     0.76943
C     -0.44056     0.24209    -0.96567
C      0.90670     0.28062    -0.52450
C      0.14467    -0.25536     1.40661
C     -0.95497     0.46351    -2.24520
C     -1.44021     0.93166    -3.32620
