 16
no_name:-309.113486492064
C     -0.94500     0.05215     1.64280
C      1.26456     0.41043    -1.01657
C     -0.80148    -0.51817     0.22639
H      1.19646     0.65132     2.04917
C     -1.49424    -1.36947    -0.49339
H     -1.86123     0.64070     1.80386
H     -3.00765    -1.88690    -1.86018
H      2.97141    -0.11397    -2.12899
C      0.43299     0.28246    -0.00918
C      2.09134     0.53352    -2.02447
H      0.19589     1.98657     1.40097
C     -2.18651    -2.21780    -1.21150
C      0.34669     0.89610     1.39359
H     -0.86094    -0.69898     2.44321
H      1.93703     1.28799    -2.80649
H     -1.96884    -3.29350    -1.19945
