 12
no_name:-306.618992465899
C      0.94690     1.23269    -0.48913
H     -3.23872    -0.30304    -1.78095
C      1.28184     0.22177     0.58366
H      2.25809     0.39397     1.04706
C      0.57015    -0.83492     1.04254
C     -2.27086    -0.15395    -1.30317
C     -1.70013    -0.99198    -0.23422
C     -0.73769    -1.15368     0.49954
H      1.70760     1.99860    -0.67394
H      0.99875    -1.45068     1.83813
C     -0.19520     1.19515    -1.16263
C     -1.35674     0.79422    -1.54049
