  9
no_name:-229.774293686331
C     -0.10467    -0.20933    -1.39081
H      0.44385    -0.75586    -2.16574
H      0.04191     1.79870     1.45655
C      0.67858     0.16523    -0.16450
C     -0.44157    -1.00419    -0.14461
C     -0.10119     0.85713     0.92547
C     -1.01026    -0.15996     0.95373
C      0.83551    -1.14993     0.57651
H     -0.85417     0.50080    -1.76284
