 17
no_name:-309.740382632474
C      1.21989     0.74468     2.26754
H     -2.57252    -1.78168    -3.22983
H     -1.69146    -1.27260     0.41102
C      2.09686     1.33827     2.87654
H      1.51461    -0.01352    -1.37112
C     -1.03316    -0.77317    -0.30906
H      2.86642     1.86399     3.40928
C      0.03892    -0.02173     0.21264
H     -0.68515    -0.45099    -2.41702
C     -1.33630    -0.94411    -1.68736
C      0.20343     0.04275     1.59820
H     -0.51528    -0.49656     2.22592
C      0.99359     0.69764    -0.70925
H      0.45746     1.41073    -1.35629
H     -3.06573    -2.19662    -1.47632
H      1.75125     1.25318    -0.14157
C     -2.38256    -1.68127    -2.15883
