  9
no_name:-229.940145461526
C      1.18725     0.01906    -0.18354
C      0.34724    -1.10837    -0.05823
H      2.27053    -0.00768    -0.30009
C      0.42538     1.16836    -0.13552
H     -1.83780    -1.47368     0.19038
C     -1.01556    -0.76701     0.07932
C     -1.15121     0.60578     0.05259
C     -0.71628     1.88027    -0.03294
H      0.71448    -2.13979    -0.06665
