 12
no_name:-381.319597048334
C     -0.27718     0.27658     0.33600
C     -2.87286     0.29993     0.38159
C      0.85751    -0.16994    -0.30484
C     -4.19032     0.30670     0.40036
C     -5.46874     0.31264     0.41510
C      2.07900    -0.55201    -0.86198
C     -1.61589     0.29470     0.36641
C      2.15526     0.65875     0.86963
C      3.04294     0.04159    -0.02042
H      4.12874     0.03694    -0.03578
H      2.20730    -1.17191    -1.74991
C      0.89615     0.77634     1.04590
