 10
no_name:-267.903020641705
H      1.43662     1.81195     2.29363
C     -0.25281    -0.16299    -0.19561
C     -0.56336     0.89320     1.63848
C     -0.13047    -0.87912    -1.40313
C      0.77015     1.24379     1.65166
C     -0.02545    -1.49808    -2.44582
C      0.84984     0.54636     0.49320
H     -2.33883    -0.14673     0.69608
H      0.06808    -2.05024    -3.36238
C     -1.28128     0.10964     0.67098
