 15
no_name:-345.929283680139
H      2.04185     2.93950    -0.68748
C     -1.50227    -1.50651    -1.05839
C     -0.63380    -0.58700    -0.40523
H      0.19688     1.48667     2.12327
H     -2.93069    -2.97461    -2.07926
C      0.58522    -0.14572    -0.84458
C     -2.26602    -2.28228    -1.59835
C      1.12585     0.80058     0.15654
C      0.10127     0.86991     1.22933
H      3.48431     0.49629     0.84282
H     -1.84014    -0.12623     1.46035
C     -0.92686     0.05435     0.89262
H      1.08946    -0.42906    -1.76788
C      2.61962     0.98776     0.40575
C      2.04258     1.96564    -0.20601
