 15
no_name:-308.474249324748
C     -1.69718    -0.30449    -2.36468
C      0.97826    -0.13829     0.23493
H      2.55011    -0.00578     1.67654
H      0.54915     0.25579     2.96836
H     -3.68228    -0.01840    -3.52600
C     -2.76342    -0.14993    -2.98683
C     -0.00860     0.69283     0.95841
C     -0.10565     0.80994     2.28858
H     -0.72375     1.22891     0.32382
H      2.90326    -1.05371     0.17163
C      0.58883    -0.66160    -1.08445
C     -0.57209    -0.45829    -1.68913
H     -0.85827     1.45933     2.74345
C      2.20778    -0.41673     0.72456
H      1.35105    -1.26988    -1.59702
