  9
no_name:-229.843793409436
C     -0.10330    -0.73862     0.18224
C     -1.36029    -0.35468    -0.47796
C      2.46160     2.03257     1.00737
C      1.82053     0.93110     0.85430
H     -1.79112     0.53829     0.00001
H     -1.15698    -0.10303    -1.53213
C      1.11770    -0.18474     0.67476
H     -2.08201    -1.18392    -0.44232
C      0.79929    -1.57957     0.71680
