 19
no_name:-385.829134703092
H      3.31332     0.38168     2.32024
H     -2.31586     1.00677    -2.18149
H      1.45829     2.05124     0.77287
H      0.56289     1.37907     2.14988
C     -0.16399    -0.44648    -0.36902
C     -0.30736     0.90236     0.20573
H     -1.79671     2.48565     0.02565
H     -3.19875     0.32660    -0.81129
C      1.70779    -0.11941     1.01722
H     -2.45145    -1.89513    -2.58434
C     -1.31051    -0.70251    -1.24285
H     -0.87196    -2.65991    -1.93841
H      3.38835    -1.31358     1.53264
C     -1.43603     1.48859    -0.23576
C      0.87062     1.18110     1.10976
C      2.86505    -0.36313     1.65778
C     -1.55806    -1.80949    -1.95946
C      0.97671    -0.98456     0.11085
C     -2.18226     0.56061    -1.17861
