 17
no_name:-347.141172925242
C      1.79852    -0.55292     1.81856
H      0.58052    -1.55032    -2.60202
C      1.14341    -1.24217    -0.52453
H      2.51022     0.90127     3.35195
C      0.32910    -1.03647    -1.67042
H     -1.37711    -0.03349    -2.50817
C      1.90676     0.56880     2.50223
C     -0.76160    -0.20478    -1.62180
C      0.87560    -0.55895     0.66425
C     -0.25626     0.25990     0.75056
C     -1.11791     0.46173    -0.38667
H      2.00022    -1.91818    -0.57884
C     -2.22262     1.27969    -0.29562
H     -2.48339     1.77035     0.64500
H     -0.50342     0.71135     1.71240
H     -2.85344     1.47759    -1.16576
H      2.38277    -1.47573     2.00545
