 15
no_name:-308.494894093612
H      0.45977     2.96533     1.54059
C     -0.27792    -1.72100    -1.00319
C      0.63784     1.60680    -0.11911
C     -0.16002    -0.68472    -0.33529
C      0.82443     2.79147     0.52520
C     -0.39980    -2.85408    -1.74301
H     -0.60448    -4.76828    -2.99706
H      0.16315     0.71707     2.56580
H     -1.08481    -0.46273     2.07884
C     -0.03762     0.46535     0.42677
H      1.02698     1.49387    -1.13619
C     -0.50848    -3.87263    -2.41289
H      1.35171     3.61608     0.04022
C     -0.61886     0.49673     1.81889
H     -1.38299     1.28847     1.90674
