 13
no_name:-232.405145429933
H     -0.00909     2.05699     0.31349
H      0.66692    -1.02273    -2.70970
C      0.36480    -0.12655     0.76809
H     -2.04151    -0.15013    -1.33999
H      2.08988    -0.98905    -1.49130
C     -0.12378     1.26560     1.06260
H     -1.84734    -0.13050     1.63005
C      1.02802    -0.83203    -1.69553
C      0.17181    -0.44251    -0.71192
H      0.96270    -0.70581     1.47549
H     -0.01253     1.59446     2.10217
C     -1.14750     0.16063     0.84269
C     -1.22867    -0.18922    -0.61147
