 15
no_name:-345.879808134088
H      2.13517     3.76194    -0.33626
C      1.74189     1.35293    -0.31727
H      4.12820     1.34248    -0.83997
C      0.57141    -0.95714    -0.12722
C      0.73792     0.49291    -0.12165
H      1.25608    -1.79085    -0.30183
C     -1.79317    -1.84174     0.36169
H     -3.50419    -3.33167     0.68487
C     -2.70710    -2.62901     0.53359
H     -1.37411     1.12907    -0.56435
C     -0.76634    -0.89955     0.16649
H     -0.98978     1.07821     1.19526
C      2.28815     2.68632    -0.39950
C     -0.75973     0.63885     0.20978
C      3.11900     1.67801    -0.60963
