  9
no_name:-267.148828222908
H      1.74378     0.30097    -1.20852
C     -0.07236    -1.03500    -1.15560
C     -1.46678    -1.12044     0.90671
H      0.66963     1.64389     0.85944
C      0.81506    -0.03445    -0.74213
C     -0.81631     0.00659     1.22964
C     -1.19064    -0.75278    -0.41638
C      0.19278     0.72292     0.52194
C     -0.64018     0.68841    -0.81763
