  9
no_name:-267.316714968119
C     -1.43064     0.28226    -0.18013
C      0.49536    -0.88767    -0.79687
C     -0.57176     0.84556     0.75671
H     -2.49052     0.53436    -0.27767
C      1.67196    -0.78190    -0.25655
C      0.64341     0.79108     1.13128
C     -0.76794    -0.67153    -1.00815
C      1.83022     0.13514     0.82451
H      2.77833     0.29718     1.34536
