 10
no_name:-193.15524809602
C      0.08823     0.01879    -1.32257
H     -1.73038    -1.58412     1.10404
H      1.41493     1.29542     0.06901
C     -1.05705    -0.98144     0.49289
H      0.87493    -0.48061    -1.91777
C     -0.04860    -0.02899     1.01727
H      0.11570     0.15887     2.08105
H     -0.33001     0.81798    -1.96203
C      0.61743     0.55433    -0.00663
C     -0.95703    -0.93467    -0.84297
