 11
no_name:-343.327440066323
C      1.53928     0.58806     0.05500
C      0.34997    -0.20100     0.07459
H      3.44880     1.84892     0.03784
C     -0.01992    -1.01898     1.21356
C     -2.42023    -0.74467     1.25599
C     -1.93656    -0.29223    -1.16019
C     -1.20766    -1.22156     1.58940
H     -2.35525    -0.53985    -2.14138
C     -0.61733    -0.12116    -0.89142
C      2.55263     1.25646     0.04559
C     -2.66065    -0.40390     0.05589
