 13
no_name:-195.0432634503
H      2.13183    -0.64718    -0.14126
H      1.42564    -1.41032     1.29120
C      1.24909    -1.20228     0.22101
H      1.20040    -2.16300    -0.31187
H     -0.63766     2.94298     0.89601
H     -1.97182    -0.26436    -0.78559
H     -0.99705    -1.79523    -1.22464
H     -1.19899     2.04843    -0.64343
C     -0.01114    -0.39298     0.03657
C     -1.04491    -0.83727    -0.69918
C     -0.65924     2.02130     0.30816
H      0.53300     0.95877     1.66911
C     -0.03921     0.91170     0.73289
