 17
no_name:-272.357515284396
H      0.91589     1.43104     1.17637
H      1.65472    -0.28239    -1.33031
C     -0.99178     0.95653    -1.46170
H     -2.07129    -0.62301    -0.43107
C      0.01515    -0.45333     0.21046
H     -1.18869    -0.94637     1.94366
H     -1.59502     1.27721    -2.31483
C     -0.24292    -1.25255     1.46529
C      0.62021     0.94671     0.24008
C      1.43030    -0.23738    -0.25948
C     -1.07378    -0.43518    -0.87250
C     -0.09188     1.71836    -0.82078
H      0.13355     2.76149    -1.05641
H      0.56573    -1.11819     2.20130
H     -0.31347    -2.33141     1.24238
H      2.22520    -0.61415     0.39203
H     -0.91988    -1.22390    -1.63146
