 11
no_name:-193.798940136292
C      0.85296     0.37578     0.42257
H     -1.36987    -0.89483    -0.70818
H      1.86389     0.64542     0.75428
C     -0.39908    -1.36985    -0.88169
H     -1.44220     2.79173     0.51004
H      1.68229    -1.36116    -0.58557
H     -1.68216     1.78331     2.06786
C      0.73394    -0.84981    -0.38701
C     -0.13802     1.16766     0.78340
H     -0.38638    -2.28735    -1.47491
C     -1.12853     1.94580     1.13452
