 14
no_name:-270.461116974763
H     -2.77353     0.34253     0.40306
H     -0.98080    -0.30108     2.39277
C     -0.43835     0.28026     0.24484
H     -0.36731     1.42282     2.18487
H      2.09636     0.68774    -1.93338
C      0.55753     1.14122    -0.44944
C     -0.86264     0.56007     1.72156
H     -0.76068    -1.96731     0.04232
C      0.81825    -1.02912    -1.17188
H      1.23261    -1.87143    -1.72862
C     -0.19476    -1.08852    -0.26805
H      0.64326     2.21689    -0.29603
C      1.28595     0.35555    -1.28231
C     -1.79296     0.76437     0.63047
