 15
no_name:-271.088448315826
C     -0.60383     0.76557    -0.60497
H      2.14518    -0.49930    -1.65212
H     -0.47164    -0.22811    -2.81168
H      1.56920    -1.26723     0.92521
C     -0.21420    -0.02157     0.63392
H     -0.54184    -0.69618     2.65347
C      0.95081    -0.61126     0.31257
C      1.25461    -0.18089    -1.10427
H      1.01359     2.14125    -1.77353
H     -1.15362     0.94519     2.31555
C     -1.01900    -0.06526     1.88858
C     -0.06036     0.05677    -1.84221
H     -2.03329    -0.46284     1.70264
H     -1.51722     1.36417    -0.66398
C      0.65971     1.20534    -1.33881
