 11
no_name:-231.15917641318
C     -0.69046     0.25994     1.47574
C      0.18088     0.04147    -1.03405
H      1.74666    -1.32205    -0.16055
H      0.17930    -2.17481    -0.63088
H     -1.65182     0.92570     3.45650
H      0.57027     0.46066    -3.08720
H     -0.41457     1.75448    -2.14965
C     -0.11576    -0.14925     0.29939
C     -1.20278     0.60971     2.53379
C      0.67552    -1.22034    -0.39525
C      0.10857     0.79450    -2.15468
