 10
no_name:-193.156457239263
C     -0.42481    -1.48955     0.07933
C     -0.01784    -0.55119    -0.80992
H     -0.60273    -2.54811    -0.11262
C     -0.29740     0.49656     1.31787
C      0.10068     0.78478    -0.11857
H      1.12884     1.18972    -0.18430
H     -0.56010     1.54349    -0.58047
H      0.19770    -0.70801    -1.86871
H     -0.32781     1.23967     2.11459
C     -0.58340    -0.81161     1.36111
