 11
no_name:-231.182703399485
C     -1.07360    -0.52064    -0.67734
H      0.75834    -1.31860    -1.50499
H     -0.58762    -1.17050    -2.67431
H      1.69232     3.23573     3.49721
C      0.67603     1.84933     1.96852
C     -0.33006    -1.41175    -1.62704
C      1.21941     2.58329     2.78787
C     -0.48068     0.29407     0.23415
H     -0.60908    -2.47011    -1.47269
H     -2.17059    -0.52967    -0.72103
C      0.07654     1.04040     1.06531
