 12
no_name:-157.01045160611
H      1.26181    -0.38562     1.67697
H      0.56427    -2.15008     0.18804
C     -0.07559    -0.13261    -0.01808
H     -1.63490     1.36226    -0.11577
C     -0.89124     0.88181    -0.77663
C      0.68772     0.40128     1.16599
H     -1.42523     0.43126    -1.62620
H      1.38990     1.19599     0.85616
H     -0.59202    -1.79866    -1.23483
C     -0.03245    -1.42412    -0.37242
H     -0.24918     1.69383    -1.16274
H      0.00263     0.86192     1.90025
