 10
no_name:-230.507881321946
H      2.16616     2.22104     1.06968
C      0.14212     1.28025     0.40803
H     -0.72038     1.76136     0.89817
H     -0.59789    -2.22123    -2.36468
C      1.50635     1.41404     0.75656
C      0.22312    -0.13477     0.06285
H     -1.75156    -2.62672    -0.94816
C     -0.93004    -2.01452    -1.33978
C      1.39028     0.05138     1.01470
C     -0.37417    -1.07565    -0.61533
