 16
no_name:-309.060973357305
C     -0.07451     0.48298    -0.20935
H      0.51255    -1.42782    -1.20699
H      1.33530     2.21505     0.48438
H      0.65095    -0.72262     1.59606
H     -1.41404     1.66285     1.11607
H      2.66458    -0.43738    -0.26550
H     -3.72357    -1.94466     1.36814
C      1.96856     0.28992    -0.71367
C      0.62882    -0.33414    -1.27153
C     -1.07587     0.64096     0.88018
H      2.51131     0.89062    -1.45677
C      1.16448     1.14577     0.30108
H      0.41964    -0.00857    -2.30226
C     -2.09650    -0.36635     1.07612
C     -2.95832    -1.20478     1.22737
C      0.37455     0.25920     1.20556
