 15
no_name:-308.567710662226
H     -1.06474    -0.24787    -2.06307
H      2.71006    -1.57696    -0.45175
H      1.06685    -1.49670    -2.32814
C      0.85145    -0.98320    -1.38761
C     -0.34702    -0.28140    -1.23849
H      2.20062    -0.39755     1.68833
C      1.77182    -1.02824    -0.33785
C      1.48479    -0.36582     0.86272
C     -0.64663     0.38692    -0.03913
C      0.28995     0.33404     1.01144
C     -1.91900     1.12046     0.09181
C     -2.35050     1.79644     1.14239
H     -3.22739     2.38098     1.41746
H      0.06554     0.85100     1.94778
H     -2.57029     1.08921    -0.80078
