 14
no_name:-382.599933033971
C      1.22898    -2.35403    -1.19447
C     -1.16647     0.97979     0.91188
C      2.38637    -2.71420    -1.09938
C     -1.05386    -1.02726    -1.02593
H      3.40914    -3.03344    -1.01534
C      0.13678     1.53635     1.20894
H      2.19995     2.40715     1.67186
C     -1.91558     1.36854    -0.33381
C      1.23088     1.99835     1.45510
C     -1.41580     0.16405    -0.36198
C     -0.09864    -1.94052    -1.30516
H     -2.34108     2.20979    -0.87587
H     -1.74291     0.68063     1.80021
C     -1.41292    -2.15872    -1.81441
