 16
no_name:-346.515749653187
H      0.43687    -0.68560     4.29895
C     -0.27943    -0.91140     2.27963
C      0.01348     2.04357    -4.62968
H     -1.99854    -0.34065     0.29393
C      0.03048    -0.35996     1.08738
C     -0.69459     0.46237    -1.13035
H      0.43346     2.97693    -6.69622
C      0.69850    -1.21855     3.36711
H      1.72494    -0.93733     3.08635
C      0.23912     2.54230    -5.73397
C     -0.45988     0.98843    -2.29386
C     -0.95474    -0.07915     0.05823
H      1.07119    -0.10230     0.86070
H     -1.33086    -1.15881     2.47778
H      0.69108    -2.29508     3.61587
C     -0.23198     1.50105    -3.42940
