 18
no_name:-310.293291659674
C     -0.49399    -0.08984     0.93106
C     -0.61621     1.32679     0.61783
H     -1.87425    -0.90425     2.37590
H     -0.21862    -1.55468     2.48078
H     -0.03965    -1.86505    -0.21842
C     -0.80561    -0.64274     2.29008
H     -0.55889     0.08531     3.07842
H      2.15883     0.64449    -2.16741
C      1.43710    -0.17836    -2.04698
H      0.90761    -0.32304    -3.00434
C      0.47187     0.11032    -0.93593
H      2.00773    -1.09589    -1.83486
H      0.40543     2.38592    -1.05136
H     -0.82329     2.13164     1.32322
H     -1.49577    -1.03456    -0.88274
C      0.02488     1.45956    -0.62093
C     -0.52641    -0.88857    -0.36545
C      0.95482     0.59049     0.55936
