 13
no_name:-269.900807971848
H      2.45408     0.79299     0.33804
C     -1.27115    -1.13258    -1.10536
C     -0.35684    -0.31964    -0.37523
H      0.80989     1.05143     2.47385
H     -2.75406    -2.45874    -2.23604
C      0.69927     0.38279    -0.87394
C     -2.06128    -1.83993    -1.69770
C      1.39234     1.09628     0.24875
C      0.59046     0.71037     1.46138
H      1.41143     2.19289     0.09308
H     -1.17160    -0.55909     1.73362
C     -0.41636    -0.10762     1.08914
H      1.00080     0.42544    -1.92036
