 10
no_name:-267.832309633516
C      0.54536    -0.07169     0.16100
C     -0.69893     0.25854    -0.19725
C     -2.03080     0.52690    -0.10582
H      2.70636    -0.42551    -0.89065
H     -2.96763     0.36932     0.42339
C      1.92732    -0.33556    -0.13610
C     -1.53955     0.62360    -1.44265
C      1.56476    -0.39033     1.13588
H      1.83566    -0.55437     2.17670
C     -1.36241     0.75206    -2.72485
