 15
no_name:-345.823408619214
C      0.94076    -0.59525     1.08739
H      1.06328    -1.99363     2.71812
H     -4.49827     1.16781    -3.42822
H      2.58436    -1.79265     1.80179
C      1.51250     0.43582     0.19078
C      1.69690    -1.26524     2.19323
C     -2.75402     0.63708    -2.01312
C     -3.68682     0.92032    -2.76907
C      0.56357     0.82753    -0.68877
C     -1.75570     0.32057    -1.18960
C     -0.72947     0.07757    -0.44338
H      2.05954    -0.52510     2.92790
H      0.63779     1.56563    -1.48503
H      2.53649     0.81947     0.23226
C     -0.34467    -0.81644     0.74196
