 12
no_name:-231.750920282048
C      0.22450     1.03707     0.15939
H      0.63803    -2.50165    -1.19937
C     -0.67847    -0.75651    -1.46221
C     -0.35430    -2.18858    -1.57604
H     -0.52463    -2.58289    -2.59124
H      0.43888     1.19263     2.87817
C      0.60075     2.12143     0.95734
C     -0.16413     0.11935    -0.60870
H     -1.11831    -2.69112    -0.94505
C      0.64055     2.10614     2.31335
H      0.80216     3.02990     2.87353
H      0.78911     3.06890     0.43098
