 10
no_name:-305.219999071998
C      0.05977     0.11238    -0.28304
C     -2.19171    -1.14545    -0.95251
C      1.00675     0.43949     0.69517
H      2.83277     1.34401     1.71874
C     -1.08299    -0.69155    -0.34379
C      2.02349     1.29549     0.99855
C      1.77906     1.65150    -0.35356
H     -2.85797    -1.09374    -1.81393
C     -1.87647    -1.72039     0.28366
C      0.62408     1.29103    -0.86438
