 14
no_name:-307.832797535602
C      0.42643    -0.95725    -0.36146
H     -3.71170     2.17248     1.89208
H      3.54861    -1.81494    -1.40672
C      1.84387    -0.53102    -0.13921
H      0.23954    -2.04111    -0.34360
H      1.97723     0.56141    -0.16439
H      3.00302    -1.67124     1.73471
C     -2.39482     1.24764     0.26567
C     -3.09526     1.74024     1.12686
C      2.76724    -1.36806     0.71731
C     -0.58233    -0.14627    -0.56518
H     -1.83426     0.97932    -1.80350
C     -1.58719     0.68758    -0.77168
C      2.98865    -1.42593    -0.55947
