 13
no_name:-307.12959406798
C      0.59093     0.41873     1.04609
C     -1.35550     0.38887    -1.98987
H     -1.09383    -0.23094    -4.18262
H      2.11106    -1.42947     0.38867
C     -1.20989     0.05496    -3.15399
C     -0.85555     0.19072     0.76495
H      1.34935    -0.32431     3.28933
H     -1.23808    -0.78507     1.10694
C      1.56879    -0.73915     1.03019
H      0.93887     1.42213     0.75286
C     -1.48469     0.73297    -0.66136
C      1.26046    -0.29163     2.20614
C     -1.80994     1.28171     0.46827
