 16
no_name:-383.95328260444
H     -0.44986    -1.18193     0.31094
C      3.56102    -0.72939     0.33282
H     -3.46951    -0.54578     0.05611
H     -3.99018     3.07834    -0.76254
H      5.49771    -1.91644     0.65092
C     -1.08503     0.83797    -0.16004
C     -1.34290    -0.57299     0.14252
C      4.59035    -1.36186     0.50182
C      1.36346     0.59931    -0.02498
H      0.31252     2.41030    -0.45834
C      2.40575    -0.02539     0.14241
H     -2.67677    -2.19353     0.45058
C     -2.19337     1.71078    -0.39085
C      0.18962     1.34673    -0.22892
C     -2.56098    -1.13181     0.22024
C     -3.14834     2.43446    -0.58893
