 16
no_name:-383.936754953409
H      0.36790     2.64724    -0.68338
C     -0.32941    -1.32141     1.64070
C      0.20548     2.02852    -2.81767
H     -2.19243    -3.76970     5.43775
C      0.96435     2.27084    -1.52922
C      1.18681     0.70108    -1.50430
C     -1.31917    -2.62043     3.65441
H     -0.28355     2.71288    -3.51594
H      0.03728    -0.12801    -3.43423
C      0.35985     0.69654    -2.79423
C     -0.79948    -1.93670     2.59507
C      0.18719    -0.63758     0.58286
C      0.66262    -0.02742    -0.36507
H      1.89496     2.85789    -1.60476
C     -1.78345    -3.23164     4.60338
H      2.24698     0.43048    -1.66397
