 18
no_name:-385.219175448527
C      1.03123    -0.14118     0.68115
H      0.46331    -2.13810     0.12673
H     -4.39050    -1.63093    -3.61711
H      2.05841    -2.01366     0.92301
C      2.07210     0.70500     0.50699
C      1.03368    -1.61412     0.91348
C     -2.90441    -0.78801    -2.08934
C     -3.69449    -1.23638    -2.90121
C      1.58344     2.07205     0.28125
C     -2.01387    -0.28525    -1.17468
C      0.23520     2.08613     0.31483
H      0.55556    -1.87349     1.87470
H      2.22749     2.93776     0.11524
H      3.12588     0.41943     0.53002
C     -0.25818     0.67826     0.60329
H     -0.72924     0.66855     1.60970
C     -1.22354     0.16426    -0.36184
H     -0.43232     2.93558     0.17392
