 13
no_name:-307.200149149353
H      1.50763     3.90741     0.68908
C      2.33750     1.77722     1.42563
C      0.30295     0.62512     0.00226
H      1.21741    -1.00696     1.00603
C      1.61323     2.83017     0.82702
C     -2.38922    -1.39151    -1.86398
H     -0.47428     0.96202    -0.69140
H     -3.20716    -1.25515    -2.54693
C     -0.39664    -1.74527    -0.19423
C      0.42106    -0.72228     0.31130
C     -1.46013    -1.54705    -1.08621
H     -0.19813    -2.77461     0.12275
C      1.18551     1.58007     0.59220
