 13
no_name:-232.45558513853
C     -1.01802     0.57230    -0.73981
H      1.21743     1.10695     1.69418
H      0.06306    -2.66164     0.11106
C     -0.50543     1.33921     0.31024
C     -0.21829    -0.67132    -0.88350
H     -0.02953    -1.10067    -1.87237
C      0.86863    -0.56984     0.17936
H     -0.99023    -1.48801     1.07618
H     -1.89114     0.81691    -1.34637
H     -0.94256     2.27424     0.66747
C      0.62151     0.72517     0.86395
H      1.89034    -0.92120     0.00472
C     -0.22478    -1.62445     0.30624
