 11
no_name:-268.586965746701
C     -1.16067     0.54350     0.58146
C     -0.10573    -1.38032    -0.17831
C      1.02447     1.62192     0.16855
C      1.36963     0.59102    -0.84670
C     -0.22406     1.40627     0.63051
C      0.88352    -0.65497    -0.72496
H      0.04106    -2.41402     0.16386
C     -1.39012    -0.72573     0.18726
H     -2.33236    -1.27620     0.25804
H      1.65775     2.49129     0.36588
H      1.88634     0.93666    -1.75265
