 12
no_name:-194.354623555234
H     -1.24565     0.58669     1.91688
C      0.83524     0.49596     0.72872
H      0.02713    -2.03373     0.10225
H     -1.85296     0.23923    -0.95117
H      1.51740    -0.14506     1.31978
H     -0.41073    -1.73167    -1.66400
C      0.51933     0.01585    -0.70447
H      0.97082     0.42284    -1.61280
C     -0.98390    -0.03794    -0.34572
H      1.23323     1.52767     0.75437
C     -0.64974     0.43259     1.01521
C     -0.18636    -1.29912    -0.68348
