 19
no_name:-348.392097415255
C      1.93819     1.26595    -0.95728
H      2.91118     0.94406    -0.54725
H     -3.37451     0.36508     2.37268
H      1.92549     1.05531    -2.03660
C     -1.33221    -0.83189    -0.50168
H      0.14275    -0.33699    -1.98491
C     -2.08502    -0.36787     0.63251
C      0.79558     0.59246    -0.23427
C     -0.08025    -0.17747    -0.92429
H      0.60835     0.15020     3.22282
H     -1.33058    -2.19459    -2.14171
H      1.00715     1.85812     1.53467
H      0.40129    -1.14833     1.89886
H      1.88815     2.36116    -0.82108
H     -2.79209    -2.31832    -0.97647
C      0.77292     0.83239     1.21929
C     -1.84954    -1.83926    -1.24736
C      0.58613    -0.10289     2.15927
C     -2.78036     0.01875     1.54856
