 11
no_name:-268.628123191559
C      1.14496     0.63192    -0.74036
C      0.72869     0.58408     0.57864
C     -1.13865    -0.99043     0.15027
C     -0.39015    -0.21110     1.01500
H     -0.64408    -0.18553     2.07903
H      1.99793     1.24046    -1.05463
C     -0.69346    -0.92212    -1.18993
H     -1.98530    -1.58892     0.49901
C      0.36317    -0.17162    -1.60183
H      1.25980     1.16807     1.33640
C     -0.34914    -0.94340    -2.59049
