 11
no_name:-343.340518405304
C      1.72727     0.95086     1.68519
C     -0.49189    -0.06199    -0.69102
C     -0.75144    -0.51981     0.67310
C      1.52285     1.09171     0.33786
H     -2.10148    -0.93488    -1.75728
C      0.72552     0.73635    -0.55801
C     -0.24479    -0.41255     1.81178
C      0.81840     0.17724     2.44315
H     -0.89035     0.09451    -2.76613
C     -1.20380    -0.31593    -1.80462
C      1.92012     0.79397     3.07491
