 17
no_name:-272.379565206012
C      1.92006     1.19129    -0.58703
H      2.74839     0.95534     0.10533
H     -2.11193     0.03022     1.24823
H      2.26336     0.99824    -1.61411
C     -1.12766    -1.04688    -0.36917
H      0.30123    -0.69708    -2.07400
C     -1.15422    -0.47496     1.04622
C      0.69879     0.40223    -0.24703
C      0.02830    -0.45778    -1.04305
H      0.76004     0.24482     1.91630
H     -1.89809    -2.28100    -1.91977
H     -0.26877     1.54418     1.31790
H     -1.06216    -1.28268     1.78995
H      1.73078     2.27516    -0.48336
H     -2.84097    -2.31210    -0.30803
C      0.04478     0.50363     1.11436
C     -2.00083    -1.92466    -0.89107
