  9
no_name:-229.850158803454
C     -1.65012    -0.48819     0.70062
C      1.27737     0.24434    -0.14076
C     -0.82497     0.26223    -0.09883
C      0.19088     0.90679    -0.79285
H      2.36475     0.32357    -0.25414
H      0.15330     1.67047    -1.57964
C      0.50153    -0.54510     0.69572
C     -0.54080    -1.14887     1.34962
H     -2.73459    -0.56711     0.81506
