 10
no_name:-193.119480388124
C      0.28367     0.99735    -0.20461
C     -0.22917     0.56518     1.11423
H      1.03848    -0.98878    -0.97268
H     -0.76262    -1.61665     1.23540
H     -0.64088    -0.60648    -1.49919
H      1.09327     2.44574    -1.72512
C      0.09988    -0.48206    -0.69120
H     -0.39819     1.11059     2.04543
C     -0.39980    -0.72026     0.72840
C      0.71277     2.10482    -0.76391
