 13
no_name:-307.247719861941
H      2.37438     1.02090    -0.35717
C     -0.32619     0.90853    -0.40877
C      0.05002    -1.41641     0.43595
C     -1.35193    -1.49711     0.38980
C     -1.69430     0.79854    -0.40776
H      2.66809    -0.71863     0.27085
C      0.58261    -0.16785     0.00274
C     -2.16637    -0.47738     0.00771
H     -2.33711     1.63205    -0.70534
H      0.71508    -2.21687     0.77434
H      0.14135     1.84611    -0.72570
C      1.96591     0.06180    -0.03111
C     -2.78009    -1.73047     0.34895
