 12
no_name:-381.478719049881
H      2.48370    -6.31306     1.01888
C      0.71276    -1.82609     0.22736
C      1.15887    -2.95768     0.42894
H     -2.41413     6.30339    -1.16814
C     -1.60744     4.18462    -0.80793
C     -2.03587     5.31231    -0.99876
C     -1.12796     2.93020    -0.59434
C      1.65068    -4.20641     0.64774
C     -0.21285     0.55103    -0.18643
C     -0.69211     1.79330    -0.40038
C      2.09539    -5.32672     0.84462
C      0.22762    -0.58655     0.01090
