 14
no_name:-382.760084670799
H      2.24278     0.56273    -2.48790
C      1.62873    -0.29189     0.77171
C      1.75752     0.01929    -0.42287
H     -0.42539    -1.00227     3.38628
C      1.47493     0.35503    -1.73700
C      0.12170     0.39387    -1.97520
C     -1.11841    -0.50392     1.41173
C     -1.80287    -0.25556     0.40662
C      1.21790    -0.62801     2.04435
C     -1.09042     0.30008    -1.69297
C     -2.17943     0.07247    -0.88569
H     -3.22039     0.13977    -1.21495
H      1.95496    -0.81947     2.83146
C     -0.14591    -0.73303     2.36214
