 17
no_name:-309.71122747182
C      1.19659     1.10205     2.31553
H     -2.56543    -1.09894    -2.88115
H     -1.04365    -2.45984    -1.29115
C      1.95335     1.79544     2.98605
H      2.56500     0.49801    -0.19900
C     -1.26714    -1.38657    -1.17539
H      2.61035     2.40730     3.57441
C      0.46064     0.13441     0.14353
H     -2.70693     0.17143    -1.63100
C     -2.55870    -0.90572    -1.79446
C      0.33569     0.31024     1.55947
H     -0.48246    -0.20350     2.07381
C      1.59008     0.82958    -0.59186
H      1.55262     0.62074    -1.66930
H     -3.42068    -1.44589    -1.36637
H      1.53585     1.91910    -0.43732
C     -0.41154    -0.64246    -0.52241
