 14
no_name:-307.901517871062
C     -1.18644    -1.26663    -0.73064
H     -2.13947    -2.09238    -2.44896
H      3.06298     4.37945    -1.12912
H     -0.03855    -0.54877     2.46094
C     -0.14815    -0.42566     1.37734
H     -1.43714    -2.08829     1.27006
C      1.88831     2.63108    -0.22204
C      2.51162     3.56315    -0.70195
C      1.18883     1.58804     0.31918
H     -0.68800    -0.47296    -1.29815
C      0.56186     0.64815     0.79410
C     -0.94142    -1.29734     0.69728
H     -2.48886    -2.95062    -0.82856
C     -1.97819    -2.14716    -1.36956
