 15
no_name:-345.921608073068
C      1.53670     0.05996     1.76447
H      0.40382    -1.46099    -2.45614
C      0.97786    -0.77784    -0.49225
H      2.97162     0.19109     3.54122
C      0.11422    -0.86654    -1.58655
H     -1.80747    -0.24399    -2.39492
C      2.29806     0.13158     2.70671
C     -1.10666    -0.19773    -1.55856
C      0.63846    -0.01838     0.65216
C     -0.59354     0.65047     0.66689
C     -1.49117     0.57795    -0.43131
H      1.93727    -1.30017    -0.50722
C     -2.77254     1.24101    -0.47812
H     -2.87760     1.78899     0.49102
H     -0.87289     1.24204     1.54184
