 13
no_name:-307.253309449029
C      0.17677     0.97506     0.50148
C     -0.88807     0.03038     0.68946
H      1.18009     2.79771     1.06552
C      0.87501    -0.54559    -1.32312
C     -1.04220    -1.13559    -0.09783
C      1.99174     0.32359    -1.62307
C      1.04032     0.57169    -0.57988
H     -1.88902    -1.79016     0.13074
C     -0.17333    -1.48305    -1.13792
H     -0.34675     2.36929     2.07131
H     -1.61797     0.21943     1.48213
H     -0.31429    -2.39099    -1.72980
C      0.34679     2.12122     1.26343
