  9
no_name:-267.189703333271
C     -0.49410     0.64351     0.47167
H     -2.30049    -0.09181    -0.69455
C      0.78491     0.57680     0.96901
C     -1.30391    -0.17597    -0.27695
C     -0.21313    -1.05042    -0.44829
H      1.42413     1.25084     1.52740
C      0.96977    -0.62440     0.25685
C      1.08334    -1.05515    -1.14555
C      1.82925    -1.57655    -2.09160
