 12
no_name:-306.343453469923
C     -0.75779    -0.28508    -1.21869
H     -2.96526    -1.07653    -1.50654
C      0.63608     0.23174     0.64210
H      2.38568    -0.56347    -0.56723
C     -0.35862    -0.88572     0.13652
C     -2.19307    -0.43063    -1.09915
H      0.56310     0.43367     1.71491
C     -1.69330    -0.04134     0.20379
H      2.53013     2.26254     0.98035
C     -0.51151     0.78763    -0.18175
C      2.02601     0.24565     0.08137
C      2.60490     1.38697     0.33655
