 11
no_name:-193.712291997803
C      0.99101     0.01236    -1.21912
H     -1.10099    -0.26991     1.60382
C      0.53769    -0.28380     0.18495
C      1.16226     1.06775    -0.03369
H     -1.29113    -1.44281     0.28383
H      0.70467     2.02419     0.25373
H      1.19086    -0.98685     0.71652
H     -1.55119     0.29431    -0.02752
H      0.36262    -0.08512    -2.11486
C     -0.93264    -0.42974     0.52684
C      2.11908     0.87447    -1.07471
