 13
no_name:-381.971871914348
C      0.16739    -0.66873    -1.13130
C      0.11173    -1.44695    -2.22358
C      0.86651     0.15378    -0.20656
C      1.55115     1.62604     1.66298
C     -1.47019     0.35311     0.91313
C     -0.89920     1.19578     1.92397
H      1.00938    -1.64119    -2.81436
C      1.82433     0.90028     0.51875
H     -0.83099    -1.89850    -2.53866
C      0.26075     1.62245     2.13183
C     -0.50128    -0.03988    -0.00105
H     -2.51920     0.05682     0.86900
C      2.89361     1.61852     1.13419
