 12
no_name:-157.008134382862
H      0.06485    -0.19630     2.47043
C     -0.31183     0.39523     1.61699
H     -0.83372     0.06156    -2.27190
H      1.67150     1.01130     0.87878
H      1.54695     0.32169    -1.35593
C      0.73975     0.53055     0.55454
C      0.66841     0.13556    -0.72513
H     -0.17346    -1.51679    -1.82760
H     -1.22989    -0.08801     1.25290
C     -0.48103    -0.53950    -1.41488
H     -1.33951    -0.71126    -0.74982
H     -0.58979     1.38375     2.02395
