 11
no_name:-305.982580101422
C      1.00825     0.52812     1.89236
C      1.86776     1.04944    -0.30439
C     -1.47371    -0.75807    -0.48397
C      0.68705     0.41905    -0.66470
H      2.61285     1.47013    -0.98057
C     -0.32769    -0.15089     0.11948
H     -3.31500    -1.73824    -1.42267
C     -0.17469    -0.10428     1.54241
C      1.86263     1.01109     1.08703
C     -2.45254    -1.27977    -0.97628
H     -0.92712    -0.52907     2.21007
