 16
no_name:-234.28635823131
C      0.65311    -0.57475    -0.88051
H     -1.19105    -1.68919    -1.50680
C      0.12581     0.46242     0.11829
C     -0.56003    -1.47350    -0.62739
C      0.84864     1.25174     1.17183
H     -0.30110    -2.42559    -0.14125
H      1.05772     0.63442     2.06221
H     -2.08417     0.03813     0.16086
H      0.24968     2.11961     1.50046
H      1.80968     1.63612     0.79337
H     -0.71540     0.88102    -1.95021
H      0.99890     1.47130    -1.63447
H      1.68097    -0.91967    -1.02922
H     -1.12742    -0.80463     1.41652
C     -1.10490    -0.41836     0.38609
C      0.19862     0.78130    -1.34956
