 15
no_name:-308.542756196636
H     -1.26603     0.90515     2.78537
C      0.43450    -0.62156    -0.89239
H      2.05327    -2.97638    -3.23633
C      1.05372    -1.51408    -1.77429
C     -0.14068     0.51185     0.99693
C     -0.95090     1.02527    -0.13009
H      0.44605     0.47899     3.07165
C     -0.23752     1.01361     2.39628
C     -0.60723     0.34815    -1.26054
H      1.41330    -1.06649     1.07689
H     -1.69597     1.81734    -0.04392
C      1.58463    -2.29229    -2.55389
H     -0.00131     2.09207     2.44709
H     -1.00575     0.47098    -2.26630
C      0.69012    -0.48344     0.50902
