 13
no_name:-344.64173448369
H     -2.91250     3.09724     2.76879
H      0.58123    -5.34023    -1.64360
C      0.37810    -0.64407    -0.30991
C      0.43584    -1.82242    -0.64850
C     -1.24401     2.21742     1.46770
C      0.35028     0.69083     0.05001
C     -2.12645     2.69086     2.15989
C      0.48985    -3.13482    -1.01922
C      1.05280     2.02601    -0.06522
H      0.99615     2.57933    -1.01500
C      0.53854    -4.30769    -1.35135
H      1.97971     2.19291     0.50436
C     -0.21902     1.70672     0.67688
