 12
no_name:-231.780362874309
C      0.46236    -1.27699    -0.83210
H      2.27375    -1.28889     0.70177
C     -0.30009     0.49167     0.21130
C     -1.07560     1.52221     0.53689
H      0.34438    -2.00456    -1.62918
H     -1.89549     1.40710     1.25061
H      1.48951     0.78538    -1.35993
C      0.88346     0.18914    -0.67533
H     -0.91293     2.51034     0.09872
H     -0.69040    -1.66169     1.19525
C     -0.15285    -0.97424     0.53963
C      1.35142    -0.94702     0.24240
