 13
no_name:-307.260794367158
H      1.32236     0.31043     1.60360
C      0.38722     1.69524     0.18715
H      0.75319     2.67665     0.48460
H     -1.40850    -0.50473    -1.71722
C      0.67173     0.49743     0.74911
C     -0.54205     1.45522    -0.94943
H      0.17654    -4.16742     0.89931
C      0.11224    -3.12614     0.64533
C      0.02451    -1.95241     0.34197
C     -0.77133     0.00240    -0.99579
C     -0.04986    -0.57231     0.01574
H     -1.00614     3.45995    -1.87420
C     -1.05778     2.37659    -1.75788
