 13
no_name:-269.779684415656
C      0.96738    -0.35799     0.30174
H     -1.91877     1.40477     0.62583
H      2.89481    -0.93264     0.93246
C     -0.51283    -0.50384     0.10163
C     -0.87916     0.26994    -1.14782
C      1.83906    -1.20881     0.87421
H     -1.42310     0.08142    -2.07134
C     -1.11064     0.88787     0.11195
H     -0.06735     2.39956    -1.24071
H      1.53068    -2.17497     1.28766
H     -1.10633    -1.36605     0.41532
C      0.07392     1.43646    -0.74213
C      1.35870     0.94369    -0.26251
