 19
no_name:-385.955875560793
C      0.37491     2.28117     0.13906
C      0.69901     0.04980     0.97593
C     -0.46489     1.79089    -0.86212
H     -1.20415    -0.92164    -2.62968
C     -0.16263    -0.44918    -0.05329
C     -0.23747    -1.89012     0.11709
H     -0.91249     2.48757    -1.57640
H     -0.81416    -2.57448    -0.50613
C      0.55840    -2.25116     1.22099
H      0.69961    -3.26576     1.59339
C      1.13855    -1.09444     1.76164
H      1.80598    -1.04764     2.62327
C      0.96811     1.41075     1.07408
H      1.62458     1.80083     1.85642
C     -0.75524     0.41241    -0.98319
H      0.57455     3.35411     0.19663
C     -1.67286    -0.10223    -2.06039
H     -1.94717     0.69142    -2.77071
H     -2.60571    -0.50458    -1.62910
