 11
no_name:-305.864463533787
C      0.82612     0.81936    -0.73043
C     -0.57653     0.40975    -0.90633
C      1.23196     0.12091     0.57672
H      1.48849     0.82473    -1.60211
C     -1.78636    -0.12531    -0.80047
C     -0.88294    -0.57421     0.17595
H     -2.81580    -0.14542    -1.16785
C      0.17476    -0.80051     1.00451
H      0.21745    -1.41577     1.90115
C      2.06028     1.11754     1.24274
C      1.24256     1.76506     0.40685
