 12
no_name:-306.516007554394
H     -0.43010     2.48236     2.55714
C      0.59696    -1.52484    -2.57922
C      0.75423    -1.82019    -3.81412
H     -1.42134     1.72364     1.16529
C      0.41175    -0.13048     0.49646
C      0.48668     0.85222     1.53705
C     -0.50919     1.72887     1.76961
C      0.42966    -1.19366    -1.29562
H     -1.52432    -1.17384    -0.10190
C      1.20026    -1.17141    -0.02058
C     -0.56920    -0.70030    -0.37147
H      1.41272     0.87416     2.11895
