  8
no_name:-191.843871066814
C      1.88284    -0.51932     0.39852
C      0.96489    -0.44311    -0.64634
H      2.88225    -0.91034     0.56993
H     -2.02539     0.10268    -0.81824
C     -1.42346     0.50095     0.00139
C     -0.12069     0.24576     0.06699
H     -1.91194     1.09414     0.77739
C      1.07466     0.50725     0.88192
