 14
no_name:-382.711853967089
C      0.76074    -0.24920    -0.56087
H     -2.30247     1.26040     2.68890
C      2.91942    -0.48745    -1.97685
C     -0.41690    -0.11436     0.21619
C      3.93426    -0.59837    -2.64399
H      4.82723    -0.69783    -3.23141
H     -3.62231    -2.01321    -0.08349
C     -1.90746     0.67723     1.85727
C      1.78071    -0.36093    -1.22790
C     -2.57164    -0.32157     1.15126
C     -0.61833     0.80290     1.30012
C     -2.86431    -1.30420     0.26342
H      0.14555     1.50810     1.64058
C     -1.60556    -0.84076     0.08116
