  8
no_name:-229.224370423863
H     -0.26404     1.39784    -1.89066
C      0.12497     0.54051    -1.32955
C      1.01462    -1.11703    -0.66499
C     -0.17865     0.34249     0.01484
C      0.67472    -1.22386     0.60424
C     -0.16182    -0.26387     1.21097
H     -0.56727    -0.14373     2.21293
C      0.98851    -0.50513    -1.84344
