 15
no_name:-308.472171894467
H     -2.07416     2.27049     0.71046
C     -0.02658    -0.59584     0.40446
H      0.40877    -3.02221     3.14224
H      1.79103     1.22605    -0.42804
C      0.47570    -0.52796    -1.01332
C      0.14652    -1.50353     1.43432
H     -0.92611     1.10551    -2.01546
C     -0.30240     0.79648    -1.17427
C      0.28317    -2.31803     2.34164
H     -1.78608     1.02978     2.08729
C     -0.76298     0.65107     0.26445
C      1.20180     0.78299    -1.23819
H      0.55162    -1.36592    -1.70945
H      1.62808     0.90676    -2.23962
C     -1.58105     1.36276     1.06660
