 13
no_name:-307.217698903296
H      0.86561    -0.38845     1.95524
C     -0.63125     0.00425    -1.04676
C      1.63371     0.94259    -0.45076
H      3.52561     2.11685    -0.97652
H     -3.29132     0.24767     0.99300
C      0.15341    -0.33563     1.13023
H     -0.73144     0.49345    -2.01509
C      2.63738     1.56593    -0.73071
H     -1.17433    -2.06386     1.47206
C     -1.14290    -1.04020     1.06980
C      0.45451     0.20390    -0.13109
C     -1.63251    -0.68385    -0.31186
C     -2.50706    -0.43828     0.66721
