 12
no_name:-231.820778905072
C     -0.01859     0.80625    -0.72211
H      1.38490    -0.74484    -1.95357
C     -0.70711    -0.54411    -0.91277
H      0.29924    -2.23195     0.25103
H      0.52832    -0.45342     2.33280
H     -0.17581     1.61269    -1.44299
C      0.22262    -1.14740     0.13876
H      0.22461     2.01350     1.24593
H     -1.55797    -0.90476    -1.49278
C      0.35080    -0.17975     1.29312
C      0.20028     1.04095     0.75520
C      0.71807    -0.46664    -1.13599
