  8
no_name:-154.438815095605
H     -2.31812    -1.94641    -0.62975
C      0.10400     0.14737    -0.10888
C     -0.93860    -0.43011    -0.47950
H      1.00960     1.42453     1.22951
C      1.28864     0.84963     0.32574
H      2.11725     0.18010     0.61651
C     -2.09620    -0.91479    -0.96679
H      1.64864     1.58587    -0.41475
