 12
no_name:-194.367024515234
H     -0.52760     1.99763    -0.32515
C      0.48598     0.03120     0.02956
H     -0.55185    -1.77951     0.84317
C     -0.43207     1.19112     0.43053
H     -0.90704    -1.47289    -0.87361
C     -0.66879    -0.97478     0.08850
H     -2.61573     0.26259     0.71069
H      2.23350    -1.02457    -0.52774
C      1.78077    -0.06501    -0.25922
H      2.43517     0.81198    -0.23792
H     -0.17310     1.68338     1.39038
C     -1.55243     0.18303     0.47890
