 16
no_name:-309.19253168774
H      1.37262    -0.88651     2.08613
H     -0.68298    -2.02139     0.94727
H     -2.64260    -2.00622    -0.52179
C      0.09746    -0.17168     0.34573
H      2.66486     1.43599     1.78999
C      1.15935    -0.09879     1.36339
H      1.49037     2.82159    -0.22755
C     -0.75140    -1.22525     0.19547
H     -0.52348     1.38445    -1.20101
H     -0.81080    -0.50665    -2.50389
C     -1.76669    -1.42271    -0.83294
C      1.81702     1.08036     1.20289
C      0.16389     1.08951    -0.41151
C      1.18773     1.82582     0.10044
H     -2.50801    -1.22283    -2.81405
C     -1.69371    -1.01883    -2.11365
