 11
no_name:-305.966062005849
C      0.71411     0.22354     1.69757
C      0.70902    -1.17295    -0.44046
H      0.69053    -0.09246     2.74604
C     -0.48417     1.98138     0.23141
C     -1.15271     1.05243    -0.62138
C     -1.04580    -0.02347    -1.24694
C      0.15613     1.35004     1.22767
C      1.08131    -0.65259     0.63242
H     -0.38889    -1.91891    -2.24651
C     -0.26490    -1.17658    -1.45817
H     -0.33695     3.03354    -0.03501
