 16
no_name:-346.477284784645
H      2.33679     2.72272    -0.10227
C     -1.62081    -1.51806    -0.90557
C     -1.23565    -0.12309    -0.64125
H      0.06980     1.05794     2.30606
H     -2.20521    -3.68910    -1.31518
C      0.20540     0.18799    -0.97445
C     -1.93164    -2.66894    -1.12335
C      0.90490     0.70763     0.21399
C     -0.13866     0.71659     1.28946
H      3.14363    -0.25591     0.72893
H     -2.23353     0.14686     1.41228
C     -1.31246     0.25832     0.83751
H      0.66657    -0.00112    -1.94399
C      2.39082     0.49159     0.48507
C      2.06214     1.69943     0.14809
H     -1.92690     0.52111    -1.22964
