 18
no_name:-385.256761967225
C     -1.37708     0.30213    -0.26942
C     -1.93428     1.44608     0.24776
H      4.10276    -1.94109     0.44055
H      2.62496    -0.07921     1.06241
H     -2.89402    -2.23111    -2.50987
H     -1.11854     3.05984     1.60919
C      2.25600    -0.87277     0.40485
C      0.89286    -0.77300    -0.06676
C     -1.97325    -0.65765    -1.12395
C      0.21837     1.40691     1.07293
C     -2.45283    -1.49859    -1.86108
C     -0.94257     2.12450     1.07656
H      1.13890     1.65664     1.59802
C      0.01779     0.22548     0.23280
H     -2.95202     1.79179     0.06791
C      3.07576    -1.88791     0.07106
H      0.53552    -1.57397    -0.72455
H      2.73671    -2.69633    -0.58453
