  8
no_name:-191.807970808126
C      0.60916     1.32383     1.31400
H      0.57123     0.11240    -1.68237
C      0.07754     0.45094     0.51005
C      0.33111    -0.32441    -0.69935
H     -0.88581    -2.30112    -0.87788
H      0.38187     1.88202     2.21783
C     -0.59758    -1.35433    -0.42483
C     -1.22871    -0.35758     0.30397
