 13
no_name:-344.640391187833
C      0.87113     1.07283     1.71022
H     -0.65563    -4.23628    -1.56234
C      0.52705    -0.71825    -1.39256
H      2.24209     1.25125     3.53129
C      0.06227    -2.06782    -1.44152
H     -2.99961     3.18350     0.46954
C      1.59757     1.16949     2.67612
C     -2.13516     2.54679     0.49673
C      0.26377     0.12450    -0.41726
C     -1.16354     1.82193     0.52103
C     -0.31635    -3.21873    -1.50847
H      1.14734    -0.37050    -2.23365
C     -0.00151     0.97435     0.57008
