 16
no_name:-309.163133331645
C     -0.85605     0.87932    -0.61515
H      2.43714     0.01746    -0.10032
H     -1.13294     1.18327     2.70123
H     -1.07010     1.07136    -1.66759
H     -2.21970     2.21824     0.43927
C     -1.43787     1.45635     0.45855
C     -0.84736     0.89391     1.68790
C      0.16714    -0.12569    -0.15112
C      0.08806    -0.01999     1.35056
H      0.70372    -0.61789     2.02422
H      1.89382    -2.18472    -1.91957
C      0.09455    -1.53220    -0.75901
H      1.72025     0.69938    -1.59397
C      1.31203    -1.48017    -1.31889
H     -0.70220    -2.27923    -0.71797
C      1.61044    -0.07973    -0.82242
