 11
no_name:-268.561799007195
C     -0.05429     1.93102    -0.23909
C      0.09893     0.55048     0.00893
C     -0.21365     3.12175    -0.42622
H     -0.85183    -0.62613    -1.62613
C     -0.40062    -0.56826    -0.63511
C     -0.05626    -1.71023     0.19815
H     -0.34379     4.17309    -0.60144
H      0.05771    -2.72130    -0.21130
C      0.55094    -1.34296     1.42529
H      1.00790    -2.01890     2.14563
C      0.94873    -0.09347     0.99841
