 10
no_name:-193.023230494518
H     -0.38534     1.32020     1.11408
H      0.42115    -3.39294     0.02531
C      0.00412    -2.41260    -0.10863
C     -0.47713    -1.29244    -0.27298
C     -1.00327    -0.02730    -0.43992
H      1.66771     0.35333     0.01135
C     -0.29462     1.22669    -0.00535
H     -0.81074     2.12690    -0.38180
C      1.17273     1.34702    -0.04521
H     -1.98289     0.07486    -0.91942
