 16
no_name:-384.0645716126
H     -3.33464     2.34315    -0.61176
C      1.91258    -1.39548     0.57528
C      3.01123    -2.17354     0.82425
C     -0.42980     0.65312    -1.19850
H      4.84683    -3.47982     1.24979
C      3.98677    -2.86670     1.05697
C      0.93354    -0.69997     0.34329
C     -2.45967     1.71831    -0.41643
C     -0.20864     0.11245     0.08665
C     -1.54786     1.44866    -1.44263
H     -1.70985     1.86243    -2.44098
C     -1.13491     0.38952     1.11540
C     -2.24942     1.18652     0.86050
H      0.28504     0.44012    -1.99564
H     -0.96617    -0.02807     2.10985
H     -2.96036     1.39548     1.66367
