 16
no_name:-309.020469102522
C     -0.93418    -0.78032     1.54798
C      0.35295    -1.00024     0.76993
C     -0.03347     0.36202     0.06317
C     -0.08070     0.18790    -1.59484
H     -0.99356    -1.69457    -1.91743
H      0.38332    -1.86733     0.09534
H      1.00631     2.35223     0.57670
H     -2.07248     1.08996     1.01402
H      1.28759    -0.95043     1.35152
H     -1.40751    -1.36872     2.33782
C     -1.25076     0.37560     0.93815
C      1.06068     1.46646    -0.06795
H      2.05597     0.99288    -0.06389
H     -0.14220    -0.91210    -3.39635
C      0.22382     1.47573    -1.27408
C     -0.42674    -0.86326    -2.34303
