 11
no_name:-231.205732191196
H      1.99911     1.14695     0.71994
C      1.12448     0.57514     0.40645
C     -0.04701     1.14789    -0.27818
C     -0.38373    -1.10503     0.00375
C     -0.95005     0.16509    -0.52418
H     -1.91889     0.24957    -1.01409
H      1.60582    -1.47670     1.04690
H     -1.88390    -2.73841    -0.40467
C      0.93568    -0.75792     0.57833
H     -0.15802     2.20130    -0.54055
C     -0.95330    -2.30391    -0.03663
