  8
no_name:-154.384226328232
C     -0.52740     0.42319    -0.43746
C     -0.45539    -0.81008    -0.13441
H     -0.79880    -1.83611    -0.06020
H      1.65723    -0.15277    -0.62675
H      0.33363     0.43140     2.04898
H     -0.98271     1.32282    -0.83692
C      0.88110    -0.00881     0.14062
C      1.27925     0.34143     1.46007
