 10
no_name:-155.670699331832
H     -0.11247    -0.92755    -1.66543
C     -0.18375    -0.51717     1.02417
H      0.07041     1.45312     0.35912
H      0.36877    -0.91277     2.96738
C     -0.03139     0.41250     0.02722
H      1.11709     0.36667    -1.77670
C      0.09684     0.12537    -1.42525
C      0.05666    -0.04309     2.34002
H     -0.58075     0.77870    -2.00318
H     -0.33212    -1.57333     0.73308
