  7
no_name:-153.784384820754
H      2.09943    -0.96896     0.08403
H     -1.42831     0.65166    -1.12097
C      0.05271    -0.28397     0.04724
C      1.01574    -1.19235     0.32801
C     -0.87579     0.60697    -0.17040
H     -1.15262     1.35665     0.58661
C      1.31635    -2.40660     0.81988
