 11
no_name:-268.479217026332
H      1.30772    -0.82594     0.57173
C      0.21597    -0.68385     0.61128
C     -0.58731    -1.85588     0.39886
H     -1.90249    -3.69707     0.07152
C      0.60412     1.70139    -0.26720
H     -1.33336     0.75327    -0.08866
H      2.05303     3.29035    -1.04348
C     -0.28427     0.69383     0.24221
C     -1.29018    -2.82832     0.22557
C      1.37701     2.54141    -0.67550
C     -0.17948     0.29212     1.69604
