 19
no_name:-348.479241782601
H      3.12907     2.12017     0.56572
H     -1.45422     1.07278    -1.61477
C      0.29837     1.10922    -0.16837
C      1.02922     2.24241    -0.02809
H     -1.62963    -2.58308    -1.45910
H     -2.73488    -1.20967    -1.74795
C     -2.08107    -1.68427    -1.00137
H      0.89401     3.19805    -0.53552
C     -1.02839    -0.74720    -0.50839
H      2.51102    -0.00107     2.12902
C      0.00036    -1.18917     0.53259
H     -0.49157    -1.51957     1.46656
C     -0.83963     0.54407    -0.88354
C      0.83307     0.05454     0.71219
C      2.11645     1.96742     0.98956
C      1.89334     0.52488     1.39932
H      0.58704    -2.05526     0.17331
H     -2.71240    -2.04528    -0.16930
H      2.05493     2.65351     1.85779
