 12
no_name:-306.561528038781
H      1.04005     3.49376    -1.06849
C     -0.96319    -2.08025    -0.23087
C     -1.61959    -3.11991    -1.01469
C      0.08292     0.26848     0.07324
C      0.60284     1.46015     0.23043
C      0.99550     2.78077    -0.24691
H     -2.03493    -3.43722    -1.96972
C      1.25749     2.50056     1.01470
H      1.67060     2.81887     1.97037
C     -1.35453    -3.40145     0.24598
C     -0.44294    -0.88873    -0.07371
H     -1.39703    -4.11533     1.06689
