 15
no_name:-308.571468701048
C      1.39567    -1.06020    -0.42528
C      0.02110    -0.96492    -0.17792
C      2.01129     0.16605     0.02115
H      1.90427    -1.85319    -0.97531
C     -0.23795     0.29270     0.62029
C      1.07788     1.02743     0.54619
H      3.08099     0.37552    -0.05421
H     -0.32441    -0.03273     1.68459
H      1.28125     1.99824     1.00008
H     -1.33783    -2.27035    -1.36966
H     -2.18106     1.55089     0.58235
H     -3.21747    -0.43703    -0.81704
C     -2.17805    -0.37431    -0.48618
C     -1.64037     0.67647     0.21777
C     -1.18786    -1.39320    -0.73867
