 10
no_name:-193.094161294559
C     -0.21486    -1.14333     0.43468
C      0.32929    -0.42887    -0.79572
H     -0.23624    -2.20567     0.68996
C     -0.46203    -0.01537     1.11711
C      0.03607     0.90995     0.01421
H      1.89143     1.13308    -1.24802
H     -0.51118     1.78023    -0.36373
H      0.01808    -0.63615    -1.82526
H     -0.76328     0.20016     2.14521
C      1.38400     0.55118    -0.46948
