 12
no_name:-381.323619638845
C      0.69685    -1.62683     1.12416
C     -0.73291    -1.39365    -0.88392
C      1.34016    -0.58474     1.88074
C     -1.14920     0.96865    -1.76508
C     -0.37323     1.38148    -0.74628
C      0.37982     1.28792     0.30807
C      0.93897     0.54856     1.17985
C     -0.03363    -1.90259     0.14843
C     -1.14252    -0.43771    -1.57644
H     -1.65291     1.55129    -2.53631
H      2.44062     0.44796     3.27119
C      2.15352    -0.59434     3.00605
