 10
no_name:-230.532169462601
C     -0.53064     1.28913     1.35717
H      1.12550    -1.64514    -1.77537
C     -0.13594    -0.52065    -0.48190
C      0.06265    -1.53377    -1.50498
H     -0.49959    -1.27353    -2.41763
H      0.75687     2.81210     2.58453
C     -0.08534     2.23876     2.19435
C     -0.31224     0.32677     0.37596
H     -0.31058    -2.51191    -1.15785
C     -1.46649     1.97619     2.21495
