 11
no_name:-193.761749798742
H      1.58503    -0.69030     0.71821
H      0.77062     2.36310    -0.67557
C     -0.05486     1.65452    -0.70907
C     -0.46839    -0.90034     0.07039
C      0.78190    -1.44488     0.70592
H      1.16800    -2.33062     0.16832
H     -2.22415     1.77653    -1.51720
C     -0.58288     0.33642    -0.41627
H      0.61107    -1.76383     1.75075
C     -1.30615     1.40989    -1.06111
H     -1.33972    -1.56113     0.00263
