 14
no_name:-270.400225785186
C      0.85232    -1.69534    -1.53628
C      0.96161    -0.39301    -0.92942
H     -1.63976     0.81912     0.42002
H      0.68058     2.49776     1.66832
H     -1.16672    -2.06840    -0.98145
C     -0.36878     2.16892     1.66808
H     -0.60982     1.77397     2.67355
C      0.41997     0.58798    -0.14092
C     -0.61077     1.14712     0.60954
C     -0.26949    -2.43599    -1.48845
H     -0.31969    -3.42617    -1.94931
H      1.74834    -2.07062    -2.04323
H     -1.02203     3.04867     1.52224
C      1.77083     0.71263    -0.63582
