 15
no_name:-345.885675712568
H     -1.72084    -0.72335     1.47301
C      3.56147    -0.69683     0.25636
H     -2.93298    -1.02922    -1.44771
H     -3.05654     1.63439     0.27919
H      5.55627    -1.70805     0.76438
C     -1.12249     0.55532    -0.33694
C     -1.83979    -0.44059     0.42589
C      4.62275    -1.23391     0.52838
C      1.30341     0.44426    -0.31478
H      0.12185     2.04898    -1.14483
C      2.37228    -0.09221    -0.04686
H     -3.98458    -0.86075     0.05630
C     -2.54111     0.80276    -0.20445
C      0.08213     1.08132    -0.63244
C     -3.04987    -0.58876    -0.44894
