  8
no_name:-229.242649965347
H     -1.71282     0.85986     1.69295
C     -0.37441     0.26532     0.18055
C      0.31880    -0.59321    -0.45337
C     -1.09050     1.15679     0.84182
C      1.02920    -1.47839    -1.11053
C      2.23301    -2.23585    -1.35534
H     -1.08292     2.21269     0.55027
C      1.19502    -2.45760    -2.16554
