  9
no_name:-155.074513251785
C      0.56171     0.10842     0.15392
H     -0.73823     0.54540    -1.58603
C     -0.72303     0.46452    -0.49288
H     -1.37291     1.18000     0.02435
H     -0.41036    -1.77049    -0.54502
H      2.62475     0.01249     1.00434
C      1.76435     0.44501     0.49519
H     -1.04570    -1.13511     1.06686
C     -0.53529    -0.91102     0.12330
