 12
no_name:-381.21226967292
C      2.74937    -1.18091     2.54988
C     -1.04259    -0.38818     0.02860
H     -1.20327     1.96105    -2.21978
C      1.42780    -1.32431     2.06052
C      2.35472    -0.27837     1.53200
C      1.00321    -0.40912     1.01529
C     -1.13125     1.17999    -1.46362
C     -1.95867     0.24585    -0.99093
H     -2.98542    -0.05146    -1.20166
C      0.39981    -0.56725    -0.35381
C      0.07897     0.87817    -0.61212
C     -0.15990     0.52730     0.82990
