 15
no_name:-345.978519855529
H     -0.63305     3.48330     0.45986
H     -2.21138    -1.36001    -0.27236
H      1.82841     2.44143     0.36647
C     -0.68649     0.18194    -0.16112
H     -0.61900    -3.26792    -0.09889
C      0.76878     0.48150     0.02526
C      1.49048    -0.65389     0.04708
C     -0.38559     2.43355     0.29973
C     -1.14078    -1.16662    -0.15677
C      1.13664    -1.93792    -0.20444
C      0.88557     1.89744     0.30966
H      1.81149    -2.65820    -0.67932
C     -1.34812     1.38462     0.09587
C     -0.26322    -2.23533    -0.06298
H     -2.41556     1.46804     0.31063
