  9
no_name:-304.498815741946
C     -0.25792     0.18758    -0.23464
C     -0.93788     1.46665    -0.59144
C      0.63749    -0.36209     0.54976
C     -2.21490     0.85308    -1.04811
C      1.48729    -0.94007     1.37409
C     -1.06888    -0.00011    -1.47288
C     -0.07955     1.10662    -1.79300
H      2.99508    -1.95157     2.81469
C      2.29560    -1.48319     2.14591
