 16
no_name:-346.592615719776
H      1.46926    -2.45306    -1.45378
C     -0.99851    -0.08572    -1.61298
H     -1.77581     0.29116    -2.28135
C      1.06186    -1.09887     0.13982
H     -0.44676     2.77408     1.82522
C      0.84946    -1.62488    -1.10028
H     -1.60024     1.62450     2.51370
C     -0.18523    -1.11674    -1.98091
C     -0.82355     0.51439    -0.31474
C     -0.85085     1.75000     1.70853
H     -0.30550    -1.58224    -2.96252
C      0.24040    -0.00568     0.59828
H      1.84589    -1.49228     0.79262
C      0.23437     0.69983     1.77142
H      0.89413     0.55063     2.62721
C     -1.43284     1.52455     0.35482
