 11
no_name:-305.815266419337
H     -1.56292    -1.23488    -2.27998
C     -0.87838    -1.31067    -1.44117
C      0.38827    -1.59318    -1.15242
C      0.66030    -1.16783     0.29008
H      0.94467    -1.89117     1.05805
C      0.73302     1.49698     0.84837
C     -0.62901    -0.58086    -0.17838
C     -0.07035     2.61320     0.72132
C     -0.79325     3.65875     0.55985
C      0.39220     0.28191     0.30552
H      1.68449     1.55018     1.39503
