  8
no_name:-229.348137442034
C     -1.68053    -0.05046     3.18205
C     -1.11072    -0.00322     2.10449
C     -0.47070     0.05047     0.90100
C      0.73007     0.15209    -1.39335
H      1.79713     0.24259    -3.42208
C      1.29606     0.20062    -2.47292
C      0.09737     0.09768    -0.18626
H     -2.18350    -0.09250     4.13016
