 17
no_name:-309.704280647958
H      0.17250     3.17086     1.30849
C     -0.78531    -2.13291    -1.17090
C      1.24691     1.30351     0.93951
C     -0.82569    -1.09163    -0.48372
C      0.74921     2.68142     0.50502
C     -0.74860    -3.25347    -1.92774
H     -0.68355    -5.15970    -3.21385
H     -0.41423     0.77809     2.22998
H      0.57963    -0.60551     1.72587
C     -0.86456     0.03075     0.28119
H      1.81744     0.83585     0.11864
C     -0.71193    -4.27107    -2.61211
H      1.59029     3.34437     0.24729
C      0.12542     0.33404     1.37347
H     -1.63544     0.77787     0.05484
H      0.09739     2.61598    -0.38117
H      1.94878     1.41175     1.78488
