 12
no_name:-231.786671044851
C     -0.51622    -0.68468     1.17414
C      0.71639    -0.71166     0.28188
C      0.03986     0.49258    -0.44330
C      0.05492     0.87172    -1.89094
H     -0.25798     0.61026    -2.90008
H      0.84536    -1.61593    -0.33962
H      1.21102     2.62137    -0.92565
H     -2.03071     0.90301     0.68112
H      1.67730    -0.47798     0.77447
H     -0.81368    -1.30105     2.02577
C     -1.09346     0.35603     0.54124
C      0.65765     1.69708    -1.08099
