 15
no_name:-308.566194538046
H     -0.78411    -1.97753     2.05692
H     -2.57081     0.15775     0.71437
C     -1.65479    -0.40822     0.91825
H      0.45928     2.26969    -2.26548
C      0.77820    -0.58256     0.24666
C      1.90860    -0.24067    -0.45473
H     -2.59559    -1.64024     2.37072
H      2.65654     1.12637    -1.96760
C      1.78758     0.81341    -1.38217
C     -1.67994    -1.39205     1.82863
C     -0.47966     0.00311     0.13828
H      2.86359    -0.75403    -0.30978
C     -0.55974     1.05585    -0.80197
C      0.55499     1.45194    -1.54707
H     -1.51912     1.56417    -0.94109
