 16
no_name:-309.154927618389
C      2.87305     1.34563     1.22206
H     -1.16829    -2.39338    -1.96619
C      1.81075     1.19531     0.65912
H     -2.42780    -0.30056     1.13986
H      0.57028    -0.18569    -1.89587
C     -1.48646    -0.07752     0.63263
H      3.81409     1.47892     1.72139
C      0.40684    -0.32880    -0.81784
H     -0.81476     1.68143     1.72167
C     -0.98110    -0.86403    -0.49597
H     -2.61400    -2.18811    -0.80122
C      0.52503     1.00602    -0.01525
C     -0.66574     0.94384     0.93090
H      1.17076    -1.03803    -0.46141
C     -1.61898    -1.86634    -1.12082
H      0.38085     1.86550    -0.69984
