 13
no_name:-382.034785083399
C      0.41323    -0.78426    -1.15781
C      0.52181    -1.52012    -2.28702
C      1.51320    -0.13230    -0.46965
C      1.39461     1.26452     1.65999
C     -2.07960     0.60039     1.56858
C     -1.08325     1.22414     2.24540
H      1.49396    -1.66688    -2.76168
C      1.71663     0.57072     0.53494
H     -0.35899    -1.97840    -2.74128
C      0.20959     1.37896     2.14091
C     -0.81144    -0.51975    -0.44053
H     -3.13519     0.60511     1.84980
C     -1.57446    -0.08017     0.41543
