 15
no_name:-271.165186127541
H      2.45522     1.38999    -0.29846
H      2.00106    -0.51982     1.14743
C     -0.91706     0.86752    -1.09023
H     -2.13841    -0.64757    -0.25670
C     -0.10788    -0.75915     0.57681
H     -1.33313    -2.29152     1.41865
H     -1.72437     1.26077    -1.71647
C     -0.34800    -1.81923     1.38096
C      1.45693     0.94077    -0.28492
C      1.20842    -0.11236     0.51270
C     -1.14734    -0.18490    -0.28624
C      0.41721     1.54909    -1.18041
H      0.30577     2.62894    -0.95019
H      0.43577    -2.23672     2.01855
H      0.77408     1.54066    -2.23132
