 12
no_name:-194.354625609404
H      0.09411     2.07803     1.08407
H     -1.84027     0.59067    -0.52260
H      0.40996    -2.25427     0.88473
C      0.86568    -0.09937     0.59251
H      0.41728    -1.21404    -1.45524
H     -1.00592    -1.16465     1.34447
C      0.04267    -0.66252    -0.58923
H      1.93137    -0.21581     0.81467
C      0.10153     1.16189     0.49040
C     -0.74444     0.66404    -0.66191
H     -0.55953     1.21835    -1.60113
C     -0.08553    -1.28578     0.76079
