 11
no_name:-305.941023885597
H      2.33882     0.41018     2.04490
C     -0.19164     0.02735    -0.12775
C     -0.60655    -0.87735     0.98188
C      1.44340     0.15890     1.47782
C     -0.87232     0.23188    -1.24428
C      1.09707     0.64173     0.24769
C      0.38889    -0.75286     1.88214
C     -1.54964     0.41889    -2.32637
C     -2.22207     0.61315    -3.41450
H     -1.51707    -1.47108     0.99577
H      1.64283     1.34995    -0.37411
