 14
no_name:-233.032287578203
C     -0.46829    -0.56597    -2.07686
H      0.59266    -0.74883    -2.31354
C     -0.63613    -0.06388    -0.65866
C      0.26849    -0.60664     0.41427
H     -1.01887    -1.50819    -2.22835
H     -0.85779     0.16655    -2.80184
H      0.50441     2.00807     2.81074
H      1.24554     1.31879    -0.61283
C      0.26847     0.52744     1.32401
H      0.33200     0.24120     3.41466
H     -1.67946     0.13613    -0.37209
C      0.37194     0.94788     2.58228
H      0.97715    -1.43296     0.33114
C      0.41073     0.85269    -0.08589
