 17
no_name:-347.185333599121
H      1.75281    -2.68588    -0.39798
H      2.52630    -0.77387     1.42674
C      1.18973    -1.76994    -0.20077
H     -1.11435    -2.54789    -0.29015
H     -1.54886     2.72734     0.78819
H     -2.42489     0.37084    -0.16767
H      0.43263    -1.13700    -2.42567
H     -1.50798     1.20693    -1.42996
C      0.66893     0.21998     0.73699
C     -0.32030    -0.26028    -0.29794
C     -0.97685     1.81531     0.59940
H      0.66967     2.10666     1.98696
C      0.18278     1.49253     1.22686
C     -1.42669     0.77539    -0.41567
C      1.62981    -0.72266     0.81046
C      0.41077    -1.09549    -1.33576
C     -0.33967    -1.77983    -0.30012
