 14
no_name:-233.069429662595
H      0.77656     1.23666     2.80636
H      0.11245    -1.34001    -3.03521
H      0.81597    -1.11956     2.29159
C     -0.67798    -1.03314    -2.33903
C      0.23357     0.43922     0.90672
H     -0.44987    -1.59752     1.12164
H     -1.66230    -1.50052    -2.46694
H     -0.40258     1.80333    -0.69325
C     -0.45732    -0.14863    -1.40054
H      0.25187     2.48101     1.51694
C     -0.23265     0.74487    -0.45670
C      0.43080     1.43677     1.78889
H      1.22527    -1.45124     0.58230
C      0.47183    -1.00647     1.25376
