 12
no_name:-306.424142725382
H     -2.38382    -0.95561     0.44273
C      0.78874     0.70801     0.45803
H      2.05437     1.05830     2.31854
H     -1.69854     0.70885    -1.92936
H     -0.41416    -1.95154    -1.65427
C      1.99027     1.05132     1.22723
C     -1.46208    -0.59682    -0.01261
C      0.01223    -0.55486     0.29560
C     -0.51450    -1.07595    -1.01512
C      2.87976     1.21662     0.27720
C     -1.05065     0.33441    -1.13200
C      0.03585     1.19675    -0.51099
