 12
no_name:-306.60842690928
C      0.45272    -1.03940     0.67264
H     -2.42030    -0.95052    -1.42587
H     -1.13324    -2.33305     0.05962
H      2.88553     1.71235     1.28882
C     -0.76086    -1.31128    -0.08776
C     -1.52757    -0.54632    -0.94837
C      1.11922     0.16173     0.66025
C     -1.05110     0.77913    -1.14487
C     -0.16710     1.58796    -0.83826
C      1.99769     1.28278     0.83053
C      0.93080     1.40412     0.01871
H      0.83261    -1.86298     1.28095
