 13
no_name:-232.439279928854
H     -1.06091     0.90957     1.69928
H     -0.06377     2.21246    -1.28902
C     -0.81510     0.25277    -0.49745
H      2.07151    -1.52087    -0.13410
C      0.31617    -0.59565    -1.04173
H      1.18335    -0.43060     2.18040
H      0.39943    -0.87275    -2.09327
H     -1.76793    -0.30571    -0.59534
C     -0.46023     0.35339     0.97881
C      0.68488    -0.32422     1.21464
C      1.16707    -0.91609    -0.04206
H     -1.93188     2.02017    -1.37700
C     -0.95176     1.58755    -1.16418
