  9
no_name:-267.180056160196
H      0.53751     0.18917     1.86293
H      1.86112    -1.26724    -0.19444
C      0.36061     0.15740     0.78823
C     -0.70797     0.76198     0.07976
C      0.97832    -0.63312    -0.21242
C     -0.89254     0.49450    -1.34326
C     -0.03086    -0.52503    -1.16593
C     -2.06263     0.70030    -0.39205
C     -3.35803     0.92185    -0.32503
