 11
no_name:-305.927167988463
H      2.50149     1.84039     3.56061
H      0.45096    -1.73318     0.34848
C      1.15487     0.96407     1.92072
C      0.30063    -0.68514     0.04400
H     -2.52533    -1.04943    -3.88813
C      0.36670     0.47103     0.89248
C      1.87561     1.43108     2.78941
C     -0.76124    -0.17642    -0.77731
C     -1.44570    -0.52940    -1.92996
C     -2.01594    -0.80701    -2.97393
C     -1.00414     0.57163     0.43791
