  8
no_name:-191.844720946932
H     -2.75562    -0.02435    -0.00164
C      0.66249    -0.21835     0.19910
C     -0.44400     0.33637    -0.26584
H      2.52905    -0.21561     1.17916
C      1.76083    -0.78794     0.64056
C     -1.83025     0.44558    -0.33512
C     -1.15889     1.34983    -1.09690
H      1.96112    -1.85793     0.48917
