 17
no_name:-347.19148547336
H     -1.79226     2.09531     0.75056
C      0.08805    -0.85909     0.51252
H     -0.01539    -2.41060     3.88249
H      1.97675     1.04198    -0.70486
C      0.58541    -0.38868    -1.74053
C      0.06243    -1.47039     1.79766
H     -0.93731     1.32420    -1.80938
C     -0.20837     0.78927    -1.19591
C      0.01720    -1.96403     2.90669
H     -1.51525     0.80261     2.07817
C     -0.56269     0.44659     0.21967
C      1.25962     0.95329    -1.52626
H      0.46094    -0.76134    -2.76113
H      1.49647     1.54398    -2.41596
C     -1.33189     1.15359     1.05955
C      0.69709    -1.34196    -0.60393
H      1.23241    -2.29140    -0.65560
