 11
no_name:-231.135584141055
C     -0.34519    -0.09843     0.23191
H     -1.72705    -1.62038    -1.16577
H      3.99572     0.03574     1.92144
H      1.15727     0.30031    -1.33653
H     -0.40465    -0.28475     1.31489
C     -1.52280     0.56823    -0.46370
H     -2.01761     1.52067    -0.64023
C      1.02966     0.11195    -0.26369
C      2.14676     0.08230     0.54765
C     -1.40508    -0.70384    -0.67647
C      3.13036     0.05881     1.28688
