 12
no_name:-306.557653270288
H      0.43477     1.08371     2.37909
C     -1.02520    -0.23277     1.26923
C     -0.06759     0.70825     1.48479
C      2.24103     0.15811    -1.77570
C      0.89770    -0.39111    -1.66052
C     -0.35084    -1.00259    -1.23016
C      1.24255     0.72156    -0.93788
H     -0.73173    -1.98215    -1.51956
H     -1.63731    -0.85342     1.92489
C      0.10810     1.04281    -0.01362
C     -0.75926    -0.21471    -0.17963
H     -0.38659     1.98988    -0.28889
