 14
no_name:-233.06257295248
C     -1.54000     0.38769     1.12205
H     -3.39937     1.47516     0.77414
H      1.96842    -0.43442    -1.85803
C     -0.29430     0.00379     0.46063
H      3.89471    -1.48897    -0.80235
H      3.02191    -1.48807     0.85317
C      1.93927    -0.66216    -0.78447
H     -2.76105     0.64800    -0.67293
C     -2.47901     1.21307     0.22894
C      3.00787    -1.24401    -0.21250
C      0.73907    -0.30599    -0.10231
H     -2.05965    -0.52486     1.46745
H     -1.99277     2.14575    -0.09640
H     -1.29954     0.95689     2.03857
