 11
no_name:-305.9157521384
H      0.13460     3.85125     1.43771
H      0.05097    -3.73750    -1.61312
C      0.82864    -1.67259    -0.80507
C      0.71670    -2.92849    -1.30923
C      0.30036    -0.51463    -0.31653
C     -0.66669     1.70428     0.60767
C      2.01566    -2.45141    -1.16303
C     -0.51943     3.03481     1.13493
C     -0.16883     0.55503     0.12738
H     -2.82600     2.72509     1.09689
C     -1.75390     2.56440     0.99286
