 13
no_name:-307.247522586214
H     -0.38846     2.79004     0.05667
H     -1.65622    -3.86940    -3.36584
C     -0.12840    -0.34466    -0.32970
C      0.93458     2.12369     1.78372
H      0.78063     0.05434     2.64452
C     -0.50809    -1.24395    -1.09714
C     -0.93423    -2.21901    -1.93840
C     -1.31718    -3.09835    -2.70017
H      1.25491     2.93509     2.43836
C      0.15471     2.05419     0.65330
C      1.19608     0.61694     1.79121
C      0.30756     0.62798     0.52543
H      2.23998     0.30247     1.62196
