 13
no_name:-382.020534909088
C      1.29630     0.56989     0.29567
C     -1.20512     0.80394    -0.31610
C      1.78070    -0.77177     0.55760
C      0.91739    -1.84657     0.48637
C      1.35972     1.99349     0.15961
H     -3.99574     3.03265    -1.26164
H      1.26883    -2.86304     0.68448
H      2.83160    -0.93128     0.81301
C     -1.17375    -0.59670    -0.14142
C     -0.42596    -1.54578     0.14563
C      0.16102     1.21519    -0.04128
C     -2.27439     1.63440    -0.67172
C     -3.18862     2.37939    -0.98582
