 11
no_name:-343.372502831011
H      2.84437     2.69148    -2.68682
C     -2.23767    -2.28220     1.71488
C     -3.04673    -3.14074     2.27345
H      2.93739     3.66351    -1.08725
C      0.94091     1.09423    -0.50685
C      2.53975     2.80184    -1.63828
C     -0.64611    -0.59481     0.60853
C     -3.85269    -3.97896     2.82921
C      1.72576     1.93232    -1.06278
C     -1.44877    -1.44431     1.16848
C      0.14072     0.24413     0.05589
