 14
no_name:-233.044875711901
H      2.70789    -2.53668     0.37199
H     -1.39094    -1.34681    -0.83585
H     -2.20257     0.08956    -0.01844
C     -0.01214     0.99702     1.39839
C      1.05860    -0.95747     0.25743
C     -1.29182    -0.32556    -0.46011
C      1.93585    -1.79296     0.31749
H      0.20538     0.22501    -2.02816
C      0.02408     0.05379     0.20464
H     -0.82127     1.73554     1.28528
H     -0.18312     0.43919     2.33274
C     -0.34755     0.60381    -1.16518
H     -0.59962     1.66720    -1.21468
H      0.94019     1.54217     1.49493
