 19
no_name:-385.832999742454
C      1.32892    -1.89305    -0.69885
H      3.38307    -1.48309     0.02304
H     -1.53686     0.29505     1.34298
C     -1.16649    -1.56166    -0.91027
H     -0.26241     1.42062     1.86254
C      0.10473    -1.23236    -0.42722
C      1.72544    -0.11229     0.75076
C      0.38407    -0.09675     0.50360
H     -3.27465    -2.06328    -1.67101
C     -2.29148    -1.82406    -1.31095
C      2.32319    -1.22323     0.01261
C     -1.09910     1.83804    -0.07321
H      1.44888    -2.76360    -1.34051
H      2.26806     0.58522     1.38894
H     -1.55840     1.38893    -0.96218
H     -1.29046     3.81809    -0.81314
C     -0.65549     0.86642     0.99613
H     -0.49302     3.64415     0.86541
C     -0.95400     3.16315    -0.00436
