 13
no_name:-269.827003816127
C      2.84452     1.15179     0.99487
H     -0.42738    -2.01804     0.33172
C      1.68762     0.87594     0.73980
H     -2.54949     0.16750    -0.50615
H     -0.08230     0.20518    -1.88796
C     -1.57162    -0.10372    -0.10265
H      3.86208     1.39647     1.23488
C     -0.24784    -0.09640    -0.85173
H     -1.12530     0.79248     2.07471
C     -0.88140    -1.41244    -0.46047
H     -1.33954    -1.98464    -1.27636
C      0.35315     0.56513     0.39380
C     -0.83888     0.56126     1.04595
