  9
no_name:-192.462749548852
C     -0.92282    -0.31486     0.60788
H      1.19586    -0.27329     1.42961
H     -1.60972    -1.03237     0.14321
C     -0.01042     0.42013    -0.27530
C      0.15936     1.35208    -1.19756
H      0.93116    -1.53127     0.10937
C      0.32369     2.26303    -2.09113
C      0.57866    -0.60967     0.58788
H     -1.34522     0.22590     1.46329
