 16
no_name:-309.212716058242
H      1.73663    -0.85915     2.12990
H     -0.58455    -2.48051     0.40463
H     -2.54132    -1.12582    -0.80570
C      0.23920    -0.45830     0.45604
H      2.37971     1.69953     1.79013
C      1.29589    -0.16696     1.41414
H      0.86394     2.78623    -0.16915
C     -0.56665    -1.45479     0.02536
H     -0.79193     0.70547    -2.34079
H     -1.33285    -1.58693    -1.99746
C     -1.48050    -0.98418    -1.08257
C      1.61862     1.15111     1.23056
C     -0.03638     0.77662    -0.30198
C      0.79281     1.74905     0.16082
H     -2.00374     1.16810    -1.14272
C     -1.12501     0.52139    -1.30543
