 11
no_name:-305.921063012157
C      0.35737    -0.02790     0.56491
C      1.08160    -1.30008     0.61883
H     -0.33050    -3.13568     0.33160
C      0.59089     1.31799     0.76315
H      0.91677     3.55563     1.17265
H     -2.02290    -0.26739    -3.54770
C      0.76026     2.51069     0.97960
C     -0.09237    -2.07742     0.41742
C     -0.55846    -0.86618    -0.19575
C     -1.07111    -0.64789    -1.49982
C     -1.58022    -0.45133    -2.58586
