 11
no_name:-268.580695673574
H      0.99344    -0.56719     2.02561
C      0.46213     1.25046    -0.91699
H      0.63710     3.29127     0.24389
H     -1.15519    -1.51502    -1.60390
C      0.87940     0.98944     0.47451
C     -0.07461     0.36635    -1.81342
H     -0.63986    -1.95365     0.70338
C     -0.26532    -1.01805     0.27435
C     -0.59003    -0.73125    -1.08254
C      0.60483    -0.23293     1.06153
C      0.82429     2.25314    -0.05111
