 17
no_name:-384.602645853903
H      3.21934     3.07095    -2.14441
C     -1.91347    -1.64883    -0.91127
C     -1.09498    -0.88281    -0.06624
H      0.07171     0.23567     2.86698
H     -3.23599    -2.88226    -2.32293
C     -0.03487     0.08492    -0.55153
C     -2.61568    -2.30252    -1.66578
C      0.55009     0.64271     0.72958
C     -0.13147     0.03240     1.81462
H      1.90078     1.90164     1.80134
H     -1.76831    -1.47128     1.94649
C     -1.10195    -0.86795     1.32871
H      0.73188    -0.41775    -1.16660
C      1.56414     1.57757     0.81038
C      2.19599     2.14249    -0.31341
H     -0.46180     0.88061    -1.18672
C      2.73474     2.63851    -1.28961
