 11
no_name:-268.593273865551
H      1.94562     1.36102     2.35769
H     -2.73050    -2.29104     0.83312
C      0.01527     1.11025    -2.45975
H     -0.00882     1.55505    -3.43678
C      0.04809     0.61311    -1.35408
C     -1.00985    -0.88046     0.30616
C      2.00961     0.52204     1.65316
C      0.06364     0.00917    -0.04844
C      1.04795     0.26811     0.81184
C     -1.92405    -1.62848     0.58074
H      2.91759    -0.09346     1.68593
