  7
no_name:-228.643819562685
H      1.34094     1.93660     3.38231
C     -0.14386    -0.34960    -0.69005
C      0.23735     0.23491     0.35104
C     -0.54307    -0.96558    -1.78887
C      0.64377     0.86019     1.46824
C     -0.93265    -1.56837    -2.86407
C      1.01630     1.43274     2.48955
