 16
no_name:-309.129656943096
H      1.51548    -0.14863     0.59908
C     -1.20425    -1.49028     1.15808
C     -1.44245    -2.44925     2.10467
H     -0.38567     2.18314    -2.51678
H     -1.83817    -4.05775     3.69052
C      0.43682     0.94708    -0.93201
C     -1.65085    -3.30557     2.94789
C      1.68817     0.61162    -0.17446
C     -0.98150    -0.63282     0.31179
H     -1.62989     0.65169    -1.27198
H      2.46769     0.24135    -0.86377
H      0.94541     2.93585    -1.58971
C      0.56921     1.98533    -2.00858
C     -0.75742     0.35594    -0.67676
H      2.10166     1.51594     0.30618
H      1.30784     1.66757    -2.76625
