 13
no_name:-269.783759832631
C      2.28347    -0.56472     0.54777
H      0.08049    -0.70799    -1.83979
H     -0.08901     1.92314    -0.11385
C      1.38018     0.39751     0.33353
C     -1.93012    -0.62545     0.76496
C      0.10060     0.84546    -0.18369
C     -1.06666    -0.07159    -0.07053
C      2.58750     0.73017     1.01908
H     -1.05069     0.72425    -2.12690
H     -2.69697    -1.31838     0.40555
H     -1.90244    -0.40367     1.83561
H      2.60110    -1.60413     0.45221
C     -0.51768     0.09927    -1.40186
