 15
no_name:-271.105670681066
C     -0.98415     1.15514     0.17805
C     -0.61112    -0.10708     0.10644
H     -0.59795     4.23612    -1.37631
H     -0.82212    -2.06821    -0.56101
C     -0.22287    -1.36475     0.03556
H      1.55322    -1.19912     1.29153
H      2.23540    -3.55666     1.13627
H     -1.62317     3.82153     0.12806
C     -0.94409     3.48501    -0.66216
C      1.34196    -3.19345     0.62267
C     -0.55433     2.20365    -0.74934
H      0.12576     1.89206    -1.54973
C      0.96235    -1.90849     0.70166
H      0.76876    -3.92223     0.04028
H     -1.66852     1.45749     0.98427
