 14
no_name:-270.474013387236
H      1.31084    -0.28546     2.43911
H     -1.04446    -2.33012     0.52357
H     -1.98991    -0.48333    -1.60557
C     -0.26764    -0.21152     0.82051
H      2.46527     1.66971     1.03468
C      0.87788     0.19059     1.55845
H      1.10381     2.22021    -1.14516
C     -0.89857    -1.28781     0.22908
H     -1.30577     1.42278    -0.21869
H     -0.28134    -0.97100    -1.85284
C     -1.00386    -0.57941    -1.11649
C      1.52126     1.19273     0.75730
C     -0.47143     0.70871    -0.35874
C      0.83012     1.45515    -0.41581
