 13
no_name:-381.874982827745
H      1.41947     1.56263    -1.71593
C      0.88894     0.04403     0.12361
C      1.56886     0.68842    -1.09185
H     -4.80684    -1.14656     0.96926
C     -0.22601     0.58662     0.85263
C     -2.76361    -0.12000     1.10517
C     -1.52238     0.50882     1.19736
C      2.37144     0.27783     0.19404
C     -3.84956    -0.66186     1.03277
C      2.49909    -0.55396    -1.02261
C      1.05786    -0.83629    -1.05968
H      3.31665    -0.73946    -1.71667
C     -0.71805     1.55779     1.75636
