 13
no_name:-307.154275952231
H      0.85410     3.22382     2.32587
H     -0.57997    -4.33771    -2.34964
C     -0.24745     0.20219    -0.36947
C      0.08650     2.01714     0.74346
H      0.11719     0.07578     1.83869
C     -0.40803    -0.96678    -0.99736
C     -0.45593    -2.19011    -1.46655
C     -0.51566    -3.35006    -1.93338
H      1.61885     0.40203     0.85599
C      0.26487     3.17999     1.40677
C      0.53502     0.57401     0.94967
C     -0.58638     1.56898    -0.43746
H     -0.18055     4.10618     1.03469
