 15
no_name:-345.870659236597
C      1.01070    -0.41913    -1.81702
C      1.46860    -0.44752    -2.94275
C     -1.74291     0.47452     0.45752
H      1.87016    -0.49043    -3.93754
H     -0.20972     1.80984    -0.47663
H     -0.46622     1.46207     2.22873
H     -2.56946     1.16472     0.25999
C     -0.29291    -0.82359     1.65418
C      0.50376    -1.27383     0.47986
H     -0.06162    -1.25824     2.63144
C      0.48839    -0.33743    -0.50123
C     -0.32716     0.82369    -0.02186
H      0.93082    -2.27336     0.39835
C     -0.48093     0.67790     1.47050
C     -1.79816    -0.53298     1.44559
