 10
no_name:-305.270431883493
C      1.53015     0.30151    -0.73784
C     -0.69199     0.17403     0.61224
H      2.12052     0.74647    -2.95139
C      2.20069     0.50447    -1.89087
C     -1.87733     0.12016     1.35108
C     -2.63832    -0.98651     1.48544
C     -3.37327    -2.03083     1.61829
C      0.35885     0.23793    -0.02463
C      2.97853     0.19480    -0.77621
H     -2.17924     1.06546     1.83390
