 13
no_name:-344.623397125302
H      2.11532     1.07665    -0.06099
C      1.13706     0.59305    -0.09656
C      0.69429     0.07737    -1.37705
C     -0.88898    -0.03567     1.37705
C     -1.50906    -0.86905    -0.86163
H      1.42431     0.24090    -2.18024
C     -0.46100    -0.57558    -1.77855
C      0.37128     0.48896     1.02966
H     -0.09631     0.84547     3.39918
H     -0.55570    -0.86948    -2.82702
C     -1.77663    -0.68846     0.44482
C     -0.18560     0.54336     2.35615
C     -2.77503    -1.36320    -0.28538
