 13
no_name:-269.813039904357
C     -0.45663    -0.55939     0.66847
H      0.98386    -1.86522    -1.60227
H     -0.39942    -1.38741     1.39207
H      2.31463    -0.54898    -1.66821
H     -2.74738    -0.43127    -0.11238
C     -1.65122     1.17860     1.01362
H      1.55838     1.89951     0.18753
C      0.81736    -0.30242    -0.17862
C     -1.87449    -0.01846     0.40213
C      1.40776    -0.94177    -1.19905
C     -0.21049     0.86210     1.14699
C      0.96847     1.02077     0.46115
H     -2.25247     2.07850     1.16192
