 11
no_name:-268.58359961936
H      2.46267    -1.73185     3.83976
C     -0.74148     0.13393    -1.21961
C     -1.42507     1.34104    -1.85031
C      0.59413    -0.66083     0.88092
C     -0.02955    -0.30990    -0.11478
H     -2.38226     1.69051    -1.43169
C      1.29160    -1.06057     1.98547
C      1.91448    -1.41711     2.97165
H     -1.54242    -0.72654    -3.20487
H     -0.80244     2.14874    -2.26693
C     -1.30594    -0.04909    -2.38780
