 11
no_name:-231.15975690747
H      1.75273    -0.17590    -0.73125
C     -0.02225     0.99208    -0.37056
C      0.39863    -1.42896     0.38923
C     -0.95120    -1.34485     0.50789
C     -1.38536     0.83728    -0.28136
H      1.57122     0.35510     0.92424
C      0.98992    -0.04996     0.06287
C     -1.76631    -0.38222     0.35472
H     -2.07469     1.61903    -0.61025
H      1.02930    -2.32025     0.40741
H      0.38365     1.93733    -0.74700
