 18
no_name:-347.770755809459
C     -0.25585     0.39019     0.32090
H      1.88059     0.77644    -0.21147
H      1.03843    -3.11935    -1.30846
C      0.92698     0.43923    -0.65066
H      2.20363    -1.87377    -2.07668
H     -1.81047    -2.59065    -0.01909
C     -0.60989     2.72792     0.97908
C      0.73882    -1.08673    -0.73719
H     -2.01726    -1.59401     1.44667
C     -0.34258     3.91826     0.92178
C     -0.36876    -1.01444     0.19144
C     -1.27130    -2.04181     0.77318
C      1.36160    -2.07929    -1.41070
H     -0.09757     4.96267     0.88262
H      0.74370     0.99526    -1.58507
C     -0.93442     1.36133     1.03404
H     -1.76912     1.05952     1.67753
H     -0.69995    -2.79334     1.34633
