 12
no_name:-231.747638727954
H      4.20251    -1.71597     1.26998
H     -2.08015     0.42372     1.12274
H     -2.15355     0.64661    -0.65921
C     -0.21185     0.12498     0.12703
C      1.66874    -0.74150    -1.15968
C     -1.53458     0.79764     0.23800
C      2.51321    -1.08085    -0.15576
H     -0.35248    -0.46777    -1.90497
C      0.29038    -0.43969    -1.01374
H      0.43978     0.15155     1.00975
H     -1.41337     1.88570     0.39578
C      3.32986    -1.42393     0.71358
