  9
no_name:-229.942108190719
C     -0.09617    -1.19275    -1.71760
C     -0.07704    -1.91831    -2.71176
C     -0.09467     0.33529     0.39109
H      0.82584     2.33951     2.88421
C     -0.09569     1.86505     2.52026
H     -0.07963    -2.54420    -3.58442
C     -0.10233     1.09973     1.44911
C     -0.10888    -0.40685    -0.62936
H     -1.01148     2.06179     3.09419
