 13
no_name:-269.806463281914
H      2.75795     1.96113     1.58878
C      0.54377     0.52525    -0.26400
C     -0.60515     0.32155    -1.02783
H     -3.30593    -1.71752    -1.67235
C      1.54804     0.70615     0.40182
H      3.65248     0.83366     0.54655
C     -1.78343    -0.29272    -1.23978
C     -2.81957    -1.24967    -0.80238
H      2.84468     0.23228     2.02274
H     -3.59947    -0.69614    -0.25141
H     -2.41621    -2.02367    -0.13274
C      2.75508     0.93676     1.17942
C     -1.36414     0.64733    -2.20229
