 17
no_name:-309.705999071523
C     -0.55728     0.27581    -1.09849
C     -2.16024     1.09496    -2.78353
H      3.24767    -0.56029     2.26035
H     -1.47492     1.87396    -3.13227
H      0.33464     0.46662     2.46494
C     -1.80709     0.24470    -1.77924
H     -3.13485     1.02809    -3.27240
C      0.86374    -0.99243     0.91440
H      0.18120     1.02908    -1.39254
H     -2.52198    -0.52276    -1.45914
C      1.17955    -0.11326     2.07104
H      1.73650    -1.54939     0.53204
C     -0.22014    -0.60835    -0.07305
C      2.38767     0.00678     2.63281
H      2.56139     0.67314     3.48181
H     -1.19441    -2.34879     1.15130
C     -0.49967    -1.61135     0.75744
