  8
no_name:-266.601671297953
C      0.24593     0.47184    -0.66232
C     -0.18842    -0.29478     0.29148
C      0.67100     1.24885    -1.64572
C     -1.22859    -1.16391     0.80146
C     -1.00827    -1.74155     2.08510
C      0.01999    -0.88832     1.59323
C      1.07088     1.97462    -2.56755
H      1.42201     2.60759    -3.36227
