 11
no_name:-343.35427743805
C      1.55884     0.38893     1.04500
C     -1.04425     0.22852    -1.17192
C     -0.80780    -1.38157     1.07512
C      0.59273     0.43267     0.09190
H     -1.90954     0.10890    -1.82444
C      0.04445     1.04282    -1.18596
C      0.09107    -1.47888     2.03307
C      1.41411    -0.48879     2.01650
H      0.39331     1.83026    -1.85455
C     -0.59270    -0.45403     0.10711
C      1.11080    -1.44724     2.94324
