  9
no_name:-155.118508952358
H     -0.52416     2.17487     1.37217
H      0.67273    -1.47425    -2.32348
C     -0.58798     0.39633     0.24713
H     -1.39825    -0.42062    -1.49685
H      1.62623    -0.84663    -0.83485
C     -0.69117     1.08789     1.34963
H     -0.94875     0.61722     2.30980
C      0.68473    -0.91820    -1.38415
C     -0.48005    -0.31514    -0.90153
