 11
no_name:-231.141556371186
C      0.09330    -0.01286     0.71340
H     -3.41616     0.13375    -0.56002
H      2.77768    -0.83263    -1.62393
C     -1.26755     0.04566     0.21691
C      1.11538     1.01148     0.30563
H      1.37958     2.06408     0.36237
C     -2.40781     0.09298    -0.19391
C      1.26395    -0.21006    -0.23972
H      1.48982    -2.12463    -1.17755
H      0.17796    -0.45575     1.72002
C      1.88128    -1.11151    -1.06303
