 16
no_name:-383.922991356293
H     -1.02375     0.64625    -1.93877
C      0.52123    -3.32896    -0.37373
H      0.50314     0.49727    -2.82152
C      0.66426    -4.45725     0.06236
H      0.78984    -5.45121     0.44846
C      0.05047     0.42326    -1.81708
H     -2.01924     1.85374     4.80912
C      0.69544     1.50303    -0.90889
C     -1.03586     1.72956     2.74282
C     -1.55866     1.79673     3.84093
H      0.61964     2.47885    -1.42006
H      1.77257     1.28799    -0.79926
C      0.36090    -2.05768    -0.86479
C      0.08141     1.59661     0.40872
C      0.21199    -0.93313    -1.31102
C     -0.44823     1.65375     1.50513
