  7
no_name:-228.456104212108
C     -0.47588     0.30650    -0.26751
C     -0.04896    -1.01028     0.55464
C      0.90648    -0.02030     0.64186
H     -1.20409     1.01273     0.14512
C      0.90002     0.75429    -0.60438
C     -0.78116    -1.27445    -0.54134
C      1.66661     1.43630    -1.43377
