 17
no_name:-347.184479316604
H     -0.71805     3.89627     1.72231
C      0.03792     0.61909     0.50590
C     -0.03219    -1.53481    -1.50828
H      1.13117    -2.62389     0.05433
C      0.06883     1.60440     1.42815
C     -0.66614    -0.18344    -1.71194
H      0.69428    -1.74042    -2.32310
H     -1.17667    -0.00665    -2.66424
C      0.66985    -0.67983     0.74287
C      0.64430    -1.66895    -0.16891
C     -0.62885     0.79173    -0.78564
H      1.17588    -0.83294     1.70125
C      0.44427     2.14654     2.70918
H     -1.10735     1.75529    -0.98713
H      0.94006     2.02205     3.66979
H     -0.79472    -2.33361    -1.62952
C     -0.24878     2.92986     1.89535
