 11
no_name:-268.543568908305
C      0.58714    -1.08582    -0.32722
C     -0.91349     1.09132    -0.47461
C     -0.36269    -0.22552    -0.73149
H      2.86215    -0.50052     2.54359
H     -0.36612     2.04685    -0.51169
H     -3.13763     1.28518    -1.15677
C      1.44938    -0.84973     0.77629
C     -2.17146     0.79272    -1.05758
C      2.20060    -0.66751     1.71458
H      0.68180    -2.03528    -0.86574
C     -1.42211    -0.13262    -1.78386
