 11
no_name:-193.779193370516
H      0.75208     1.99876     1.32498
C     -0.15876    -1.77847     0.65669
H      0.08525    -1.74899     1.72294
C      0.14328     0.71125    -0.23839
H      0.53567     2.78788    -0.35946
H      0.46098    -0.28094    -2.22615
H     -1.30306     0.07551    -1.83166
C      0.49464     1.89187     0.26687
H     -0.44829    -2.74231     0.22768
C     -0.10421    -0.67813    -0.09096
C     -0.28299    -0.06540    -1.44537
