 11
no_name:-268.51426654397
H     -0.68079     0.25114     2.18770
C     -0.25079     0.67396     1.27844
C      0.20854    -1.16279    -0.79502
H     -0.36839    -3.40175    -0.37613
C      0.55804     1.33860    -0.49406
H      0.14208     2.89036     1.33466
H      0.98882     1.76104    -1.40470
C      0.13096     1.89875     0.88345
C     -0.01416    -2.48721    -0.85359
C      0.53944    -1.88749    -1.99845
C      0.18560     0.08542    -0.13651
