 14
no_name:-270.426200381114
C     -1.08721    -0.76202     0.07409
H     -2.58921    -1.51196    -1.28036
H      4.35134    -0.12147     2.24700
H      0.93815     1.09890    -1.81863
H     -1.03418    -1.57742     0.80500
C     -2.35252    -0.59837    -0.70475
H     -2.28742     0.24542    -1.40794
C      0.00262     0.03377    -0.06494
C      2.43064     0.18298     1.01906
C      3.45617     0.02699     1.67326
C      1.28749     0.37707     0.28467
H      0.28268     2.22577    -0.51414
H     -3.21527    -0.42551    -0.03550
C      0.61188     1.20693    -0.77227
