 16
no_name:-346.58504843109
C      1.63555     2.40492     1.32139
H     -0.34534     1.60878     1.42582
C      2.48787     3.22120     1.63428
C     -1.08404    -2.29524    -1.34451
H      3.23930     3.93577     1.91386
H     -1.26058    -3.17388    -1.96627
H     -2.00405     0.08456     0.85259
C     -1.52218    -0.59095     0.14752
H     -3.12249    -2.00224    -0.36620
C      0.08981    -1.59858    -1.23120
H      1.03259    -1.80302    -1.73801
C     -0.12804    -0.50741    -0.29961
C     -2.09292    -1.65992    -0.47769
C      0.84391     0.43216     0.07738
C      0.64036     1.47998     0.96587
H      1.84002     0.32994    -0.36566
