 15
no_name:-271.138546947404
C      0.36337    -0.05887     0.00965
C     -0.86566     0.65644    -0.40846
C     -1.87622     0.28634     0.41820
C     -1.36422    -0.67419     1.40205
H      0.63174    -1.54095     1.72183
H     -1.96237    -1.13654     2.18914
C     -0.04378    -0.88541     1.17054
H      1.79087     1.60037    -0.48427
H      1.21141    -0.31268    -2.05205
H     -2.90845     0.63750     0.37092
H     -0.91260     1.35492    -1.24509
H      1.85323    -1.51793    -0.81882
C      1.41332    -0.53402    -1.00085
C      1.75218     0.58374    -0.08466
H      2.43265     0.39459     0.74956
