 12
no_name:-231.809566022168
H     -1.28628     0.76720    -2.04034
C      1.12427     1.52431    -0.23624
H      2.39756     0.05136     2.28234
C     -0.96210     0.15094    -1.19470
C      1.08470     0.40425     0.66137
C     -1.60765    -0.98937    -0.88924
H      1.05938    -1.23168     2.00419
C      1.53765    -0.29642     1.70521
H     -2.46704    -1.33097    -1.47168
H     -1.28725    -1.60734    -0.04565
C      0.16910     0.61665    -0.44157
H      1.59382     2.45765    -0.54267
