 13
no_name:-269.847774239001
C      0.67699    -0.93803     0.45364
H      2.03045    -1.68133    -1.85523
H      0.44547    -1.90912    -0.01852
H      3.10637    -0.15974    -1.96580
H     -4.59396     2.55170     0.99459
C     -1.55209     0.53348     0.67793
H      2.05807     0.75316     0.05555
C      1.75464    -0.22535    -0.33452
C     -2.69156     1.28947     0.79436
C      2.32443    -0.71231    -1.43771
C     -0.54720    -0.15061     0.58350
C     -3.70292     1.95990     0.90249
H      1.05368    -1.16988     1.46885
