 14
no_name:-270.405103901135
C      0.27023     1.45286     1.47116
C      0.30173     0.35683     0.67171
C     -0.17867    -0.35962    -0.47555
H     -0.58304     0.92710    -2.24541
C     -1.48873    -0.76673    -1.06914
C      0.23013     2.44332     2.20555
H      0.20746     3.31374     2.83309
H     -2.37200    -0.17855    -0.80190
H      1.92252    -1.01560    -0.00725
H      0.62799    -1.81808     1.03728
H     -1.67132    -1.83723    -1.20844
H      0.11442    -0.73382    -2.64816
C      0.89553    -0.97604     0.38303
C     -0.42329    -0.10806    -1.92843
