 10
no_name:-230.577006122161
H     -1.72954     1.42892    -1.02265
C     -0.62012    -0.09153    -2.06975
H     -0.14395    -1.29721    -3.95693
C      0.78027     0.24120     2.58898
H      0.48812     0.85898     3.44538
C     -0.37073    -0.72782    -3.07521
H      1.57053    -0.50087     2.74770
C      0.20189     0.38508     1.40773
C     -0.94135     0.66995    -0.91386
C     -0.35199     0.51980     0.27386
