 10
no_name:-230.51829579955
C     -1.35077     1.41504     0.76405
H      1.27467    -1.90332    -0.69037
C     -0.55497     0.44205     0.30108
H     -0.37468    -1.47370     1.63069
C      0.31211     0.28119    -0.97189
H      1.14361     1.00022    -1.05577
H     -0.25685     0.27106    -1.91616
C      0.64095    -1.07805    -0.35676
C     -0.13562    -0.88446     0.74428
C     -2.11133     2.35286     1.19276
