 10
no_name:-305.298479369413
C     -1.14088     0.44931    -0.55127
H      0.25245    -1.26798     2.03288
C     -0.02655     0.88304    -1.24753
C      0.14842    -0.75244     1.07468
C     -1.10661    -0.44237     0.56795
C      1.26952    -0.43473     0.24319
C      1.19761     0.29180    -0.93229
C     -1.19098     1.71896    -1.20397
C      2.24812    -0.67079    -0.77051
H     -2.01267    -0.81888     1.04965
