 11
no_name:-193.779196241626
H      0.48271     1.42303     1.75951
C      1.55490    -1.19516     0.04696
H     -1.41719     0.50520    -1.90614
C      0.59245    -0.33219     0.36557
C     -1.43993     0.86272    -0.87220
H     -2.22542     1.57254    -0.59655
C     -0.54154     0.44667     0.01795
H      2.28685    -1.52772     0.78893
H     -0.62074     0.02127     2.21981
H      1.64070    -1.59613    -0.96748
C     -0.03945     0.51406     1.42680
