 11
no_name:-231.11311541691
C     -1.37576    -0.52513     0.89931
H      1.86864    -0.22002     0.99346
H     -1.41205    -1.30632     1.66148
C     -0.18790    -0.21935     0.28748
C     -0.10343     0.76446    -0.68477
H      1.52889    -1.43660    -0.25864
C      0.01152     1.66031    -1.58002
C      1.11259    -0.93185     0.62711
H     -2.30197    -0.00620     0.64599
C      0.11995     2.58876    -2.50625
H      0.92976    -1.68381     1.40745
