 16
no_name:-309.118049113038
C     -0.10037    -2.48958    -2.92627
C      0.60484    -2.76654    -3.87512
C     -0.57202    -1.55198    -0.73110
H     -0.17641     3.15349     1.05697
C      0.19220     2.59806     1.93314
H      1.23389    -3.01203    -4.70976
C      0.19221     1.12103     1.69395
C     -0.95994    -2.17518    -1.82847
H      0.17766    -1.53923     1.20261
H      1.20743     2.96384     2.16971
C     -0.20473     0.51967     0.55836
C     -0.18766    -0.92973     0.36322
H     -0.56378     1.12442    -0.28212
H      0.54787     0.48976     2.51932
H     -0.44115     2.86201     2.79901
H     -2.01297    -2.48259    -1.92150
