 13
no_name:-269.818246440944
H     -0.31162    -1.57620     1.73713
H     -2.99580    -0.27591     0.88736
C     -1.91840    -0.47517     0.88625
H      1.57913     1.93396    -2.33422
C      0.04043     0.60190    -0.64192
C      1.47071     0.46980    -0.80968
H     -2.00773    -1.92720     2.44041
H      3.20609     1.13127    -1.85555
C      2.12524     1.21657    -1.71401
C     -1.38685    -1.37251     1.73141
C     -1.13038     0.28028    -0.06309
H      2.00621    -0.25169    -0.18324
C     -1.13743     1.26680    -1.08395
