  9
no_name:-267.205895767673
C     -0.59695     0.30845    -0.91792
H     -1.60244     1.37123    -2.68026
C      1.22986    -0.12690     0.94520
H      1.36855     0.83467     1.46094
C      0.06682    -0.36669     0.11401
C     -1.12627     0.87082    -1.85680
C     -0.27473    -1.16597     1.20868
C      0.96072    -1.45263     1.78529
C      2.23808    -1.32941     1.57533
