 13
no_name:-269.857654684159
C      0.46177    -1.20547    -0.10341
H     -1.31718     1.88253     0.40780
H      1.51199     2.80055    -2.72933
H     -1.89649    -0.76029     2.01964
C     -1.09201    -0.91611     1.29710
H     -0.25874    -3.01102     1.31452
C      0.23658     1.83394    -1.09184
C      0.91437     2.34686    -1.96171
C     -0.56471     1.24745    -0.07475
H      1.53699    -1.05259     0.09058
C     -0.44485    -0.03707     0.31762
C     -0.31684    -1.97887     0.96245
H      0.33152    -1.54279    -1.14569
