 19
no_name:-348.364932669632
C     -1.22204    -1.92461     1.99159
C     -0.13411     0.46113     0.09217
H     -2.05919    -0.44192    -0.64647
H     -2.00278     0.01626     2.20485
H      1.36034    -0.79667    -1.85390
C     -1.24599    -0.51956     1.60309
H      0.18688     1.14070     2.19964
H      0.43790     1.97401    -2.99676
C      0.27146     1.08062    -2.38869
H     -0.64286     0.53368    -2.63596
C      0.67883     1.13071    -0.93766
H      2.46270     0.63418    -2.21767
H      1.18339     2.04141    -0.59452
H      1.00572    -0.40807     1.79760
H     -1.18040    -4.13036     2.59021
C      1.46438     0.28900    -1.93365
C      0.14205     0.23622     1.56963
C     -1.30930    -0.19704     0.10961
C     -1.20057    -3.09433     2.30996
