 13
no_name:-269.823840476377
H     -1.25874     2.83978     0.69122
C      0.15719    -2.27679     1.21571
H     -0.66691     2.25399    -2.30510
C      0.41786    -3.44052     1.45425
H      0.65143    -4.46699     1.66601
C     -0.04825     2.26089    -1.39200
H     -0.72830    -0.38972     1.74002
C      0.17845    -0.25073    -0.16875
C     -0.16476    -0.91927     0.96205
C     -0.15646     1.12414    -0.40789
H      0.91726     2.77649    -1.52802
H      0.74021    -0.77300    -0.94893
C     -0.70831     2.25418    -0.04079
