 12
no_name:-381.356273321052
C     -0.81810    -0.90846    -0.41485
C     -2.23592     1.32522    -0.58699
H      5.13501    -1.91026     1.28178
C     -2.79695     2.38012     0.03489
C      2.95706    -1.54397     0.66193
H     -3.25243     2.74654     0.95511
C      4.11446    -1.73890     0.99177
C     -1.81072     0.00244    -0.60834
C      0.49860    -1.12783    -0.03909
C     -2.37785     2.59930    -1.27368
C      1.66165    -1.32708     0.29253
C     -2.07322    -1.38816    -0.84940
