 16
no_name:-309.129617154723
H     -2.48361     3.98999     2.03443
C      0.87097    -1.05387    -0.82841
C      0.80991    -2.10351    -1.44249
C      0.97737     0.17048    -0.11869
H      1.66489    -3.57357    -2.71303
H      0.53175    -4.20808    -1.49444
C     -0.87361     2.64764     1.89718
C      0.72635    -3.36088    -2.17435
H     -0.08901    -3.33863    -2.91738
C     -0.04502     0.77669     0.53376
H     -1.03613     0.31290     0.53070
C     -1.84184     3.25285     2.53351
H      1.96562     0.64905    -0.10608
H     -2.05014     3.04716     3.59115
C      0.10288     2.03224     1.25269
H      1.09997     2.49394     1.25359
