  7
no_name:-228.61540509248
H      1.22171     0.26083    -1.56366
C     -0.71378     0.05153    -0.45074
C     -1.58435    -0.12012     0.54493
C      1.12582    -0.08958     0.64912
C      0.66081     0.10600    -0.64548
C     -0.63402    -0.24995     1.47482
C      0.63987    -0.29070     1.87481
