 11
no_name:-231.264030051989
C     -1.15825     1.21375     0.62302
H      1.22567    -1.73771    -0.33873
C     -1.09003     0.03917     1.34378
H     -0.26389    -1.94426     1.67013
C     -0.31674     1.31275    -0.49954
H      1.18353     0.33944    -1.71182
H     -0.32996     2.22240    -1.10698
C      0.55820    -0.91466    -0.06728
C     -0.27417    -1.03670     1.05990
C      0.53327     0.25358    -0.83774
H     -1.82716     2.03427     0.89768
