 15
no_name:-345.921739583267
H     -1.67653    -0.71737     1.24421
C      3.24177    -0.79443     0.38353
H     -4.27149    -0.14946     0.01834
H     -3.06348     2.28307    -0.91707
H      5.13404    -1.98947     0.88451
C     -1.31025     0.83647    -0.32477
C     -1.89553    -0.48962     0.18727
C      4.24936    -1.42932     0.64787
C      1.10309     0.55912    -0.18159
H      0.08538     2.32097    -0.88789
C      2.11487    -0.07952     0.08435
H     -1.65209    -1.37331    -0.42647
C     -3.23853     0.18546    -0.09742
C     -0.05420     1.30763    -0.49187
C     -2.66963     1.33650    -0.54021
