 10
no_name:-193.102392354633
H      0.66494    -1.35380    -1.67809
C     -0.85781    -1.01414     1.80436
H     -1.51752    -1.49112     2.50420
C     -0.10703    -0.46512     1.02528
H      1.65012     0.66989     0.54126
C      0.22891     0.88051    -1.17718
H     -0.85629     0.89013    -1.34099
C      0.78175     0.17256     0.08566
H      0.73080     1.82020    -1.44153
C      0.95786    -0.38128    -1.27852
