 10
no_name:-267.844677745501
C      0.81092     1.19416    -1.05820
C      0.51383     0.19493    -0.08576
C     -2.00998    -0.60621     0.18967
H      1.60470     0.58892     2.09807
C     -0.86235    -0.23780     0.05940
H     -3.02900    -0.92743     0.29953
H      2.10497    -1.70194    -0.17112
C      1.04978     2.26387    -1.70793
C      1.64110    -0.82310     0.26578
C      1.44514     0.07619     1.15449
