 13
no_name:-307.197890033558
C     -0.29175     1.09888     0.70225
C      1.36986    -0.29898    -0.49960
C      0.02559    -2.38588    -1.44925
H     -1.05889     0.36402     0.43202
H     -1.58066    -3.92892    -1.99055
H     -1.68850     2.35638     1.75941
H      1.82095     1.55231     0.50951
C      1.02044     0.84602     0.26301
H      0.08351     2.95400     1.72765
C      1.00467    -1.45503    -1.11011
C     -0.83069    -3.20399    -1.73289
C     -0.65574     2.20038     1.43997
C      2.37558    -1.04793    -1.17232
