 14
no_name:-382.712329627716
C      5.05036    -2.12808    -0.93483
C      3.91332    -1.68592    -0.88905
H      6.05017    -2.51816    -0.97484
H     -2.75889     0.71597    -1.63497
C     -2.22152     0.69680    -0.67985
C      2.64511    -1.19161    -0.83879
H     -3.88967     1.52724     0.31398
C     -2.86474     1.15814     0.42891
C      0.23647    -0.25364    -0.74540
C     -1.84916     1.24266     2.85572
C      1.49918    -0.74541    -0.79324
C     -2.30796     1.19905     1.73077
C     -0.90743     0.19128    -0.69859
H     -1.43649     1.27824     3.84666
