 10
no_name:-342.667402128894
C     -0.51578     0.94481     0.28172
C     -0.82646    -0.10212    -0.67668
C      2.14016    -0.47231     1.17618
C      1.36321    -1.10505     0.17568
C      1.53511     0.70516     1.57426
C      0.30911    -0.95489    -0.47034
C      0.39248     1.21559     1.11943
C     -1.89309    -0.20094    -1.50411
C     -2.90046    -0.29120    -2.28227
H      3.08150    -0.84743     1.58397
