  8
no_name:-154.458066430596
C     -0.22675     0.30499    -0.36638
H      1.22312    -1.34129    -0.41532
H     -0.28696     1.39262    -0.53630
H      1.92226     0.21261     0.23547
C     -1.13638    -0.44278     0.42181
H     -2.21570    -0.53112     0.53229
C      1.01134    -0.37691     0.05768
C     -0.02305    -0.53976     1.21714
