 14
no_name:-382.665530842649
H      0.92060     0.79518     5.37772
C     -0.05313     0.10965    -2.90342
H     -0.34918     0.20335    -7.80164
H      0.84885    -0.99776     5.33680
C      0.24159    -0.00258     2.28457
C      0.30920    -0.03198     3.51740
C     -0.20959     0.15813    -5.50075
C      0.37744    -0.07205     4.96327
C      0.16913     0.03133     0.95204
C      0.09514     0.05642    -0.31190
C     -0.28363     0.18128    -6.73015
C     -0.12756     0.13295    -4.16453
H     -0.64769    -0.03772     5.37426
C      0.02420     0.08509    -1.60630
