 17
no_name:-347.124169927782
C     -0.40724     1.74456     0.67539
C     -0.43359    -1.14292    -1.87680
C     -0.26559     0.41901     0.11895
H     -0.88965     2.58766     0.17997
H     -0.47337     3.67846     2.49728
C      0.45789    -0.38034     1.12593
H      0.74953    -2.84241    -2.36031
H     -1.35349     0.79832    -1.63974
H      0.69875    -1.43672     1.01941
C      0.13947     1.75713     1.97379
C      0.68451     0.39365     2.21482
C      0.64356    -1.94470    -1.74582
H      1.13557     0.08843     3.15889
H      1.46045    -1.70928    -1.06021
C     -0.70530     0.07219    -1.13552
H     -1.17014    -1.39222    -2.65039
C     -0.27017     2.67649     2.93407
