 10
no_name:-305.257891207334
H     -0.91348     0.74083     2.50165
C     -0.68861     0.56550     1.45180
C     -1.34728     0.86833     0.28928
C      0.33950    -0.03104     0.79615
C      1.02417    -0.46363    -0.33837
C     -1.25348     0.74917    -1.07235
C      2.18658    -1.11757    -0.64582
C      3.25959    -1.72152    -0.92853
C     -0.06309     0.10047    -1.00338
H     -1.89695     1.06049    -1.89242
