 15
no_name:-233.655278314082
H      0.52343     0.94980    -0.69259
C      0.36977     0.00817    -0.14997
H      2.94565     0.21946    -1.13344
C      1.43548    -0.88354    -0.04716
H     -1.31899     1.93952     0.91570
C     -0.96227    -0.22079     0.42166
H     -2.35691     0.76948     1.88118
H      1.25003    -1.81620     0.50211
H     -3.09292    -0.35289    -0.28556
H     -1.07592    -1.17169     0.95315
H     -2.05125     0.82241    -1.24071
H      3.48796    -1.43627    -0.45482
C     -1.77368     0.94597     0.97272
C      2.70003    -0.69012    -0.57683
C     -2.20577     0.28692    -0.29918
