 14
no_name:-270.424531402255
C     -0.43619    -0.37707     0.84865
H     -2.19244    -0.70552     2.08123
H      0.53241     1.27028    -2.76799
C      0.84520    -0.35011     0.37309
H     -1.69785    -0.26038    -1.00227
H      0.48454    -1.78956     3.36022
C      0.46394     0.33218    -0.86631
H     -1.43549     1.33192    -0.20610
C     -1.10480    -0.86771     2.04682
H      1.80217    -0.70346     0.76469
H      2.16662     0.66179    -2.08900
C      1.08618     0.77771    -1.96416
C     -1.00088     0.33327    -0.38560
C     -0.51968    -1.47782     3.06935
