  9
no_name:-267.229775796693
C      0.62816     0.79344    -0.76059
C      0.34516    -1.48318     0.58285
C     -0.23024    -2.37880     1.31868
C      0.85492    -0.53732    -0.14955
H      0.04331     2.66940    -1.50470
C     -0.24893     1.80103    -0.90730
C     -0.80289    -3.27157     2.05645
H     -1.24035     1.78036    -0.45086
C      1.84300     0.12623    -0.94840
