  9
no_name:-304.554554132675
C      0.95119     0.80829    -1.02678
C      0.23964     0.09592    -0.13666
C      0.78414     1.52803    -2.26193
C     -0.40390    -0.58057     0.72218
C     -1.61941    -1.26209     1.36208
C     -0.44826    -1.33921     1.95810
C     -0.18615     1.83208    -3.13020
H      0.29337    -1.61165     2.70594
C      2.06281     1.41862    -1.59450
