 13
no_name:-269.766238511727
H      0.26725     2.00236    -0.74743
H      1.40079    -1.56995    -2.41541
H      1.54662     0.76743     1.69110
H     -1.47983     1.20880     1.58246
H     -1.72262    -1.11556    -2.52407
C     -0.08171    -0.40122    -0.81073
C      0.71789     0.52626     1.03243
C      0.51151    -1.15288    -1.94518
C     -0.17466    -0.66750     0.70381
H     -0.32815    -1.56711     1.30640
C      0.10815     1.03000    -0.27291
C     -0.71008     0.73460     0.98126
C     -0.78543    -0.96330    -1.99074
