  9
no_name:-192.441618250039
C     -0.10168     0.14926    -1.08713
C     -0.92614    -0.12473     0.11987
H      0.97877     1.13362     0.71785
C     -0.01374     0.37342    -2.36176
H      0.33836    -1.98349     0.32537
H     -0.07605    -1.11774     1.90971
H     -1.86856     0.34053     0.40668
C      0.48674     0.26843     0.27493
C      0.02616    -1.05578     0.81966
