 11
no_name:-305.944818300693
H      2.58362     0.79238    -0.62913
C      0.39472    -1.68202     0.67208
C      0.65592    -0.45342     0.14411
C     -2.00455    -1.38132     0.89550
C     -0.51233     0.38574    -0.02399
C     -1.72445    -0.08805     0.33914
H      0.27240     2.46804    -0.96764
C      1.51977     0.66861    -0.42776
C     -0.80255    -2.03372     0.98400
C      0.42960     1.45837    -0.58722
H     -2.99928    -1.72888     1.17666
