 14
no_name:-307.94593576326
C      0.62712     0.40411    -0.98233
H     -3.79094     0.79232    -2.52337
H      2.59401     0.13598    -0.04790
C      1.50708     0.06738    -0.01011
H      0.85197     0.80217    -1.97183
C     -1.92656     0.38602    -1.25852
H      2.32280    -0.87705     2.50797
C     -0.75391     0.14520    -0.49489
C     -2.91408     0.60334    -1.93329
C      0.74136    -0.42503     1.15199
C      1.24472    -0.85914     2.32531
H     -1.51055    -0.63933     1.41623
C     -0.67642    -0.34917     0.77922
H      0.59099    -1.20620     3.13034
