 17
no_name:-347.130866164516
C     -0.80307    -0.70627     1.58700
C      0.40264    -0.67190     0.63948
C      0.04759     0.84392     0.50171
C     -0.02426    -0.08100    -1.67633
H      0.07050    -0.16472    -2.76388
H      0.10255    -2.84400    -2.16688
H      0.01501     3.01550     0.10212
H     -1.84000     1.26533     1.88947
H      1.37271    -0.95183     1.08203
H     -1.29344    -1.53950     2.09378
C     -1.06912     0.60907     1.47764
C      0.55790     2.10927    -0.19396
H      1.61931     2.27921    -0.41306
H      0.56900    -3.30134    -0.41703
C     -0.13186     1.05116    -0.95065
C      0.17696    -1.23773    -0.77318
C      0.28605    -2.52745    -1.13608
