 14
no_name:-382.573431979877
H      2.77361     1.87654     0.46708
H     -3.66991    -2.88196     1.41481
C      1.51401     1.21804    -1.20226
H      2.04916     1.60573    -2.06693
C      0.35119     0.36415    -1.24191
C     -2.08365    -1.60005     0.38370
C      1.90276     1.31320     0.12280
C     -1.10122    -0.79925    -0.25332
C      1.05987     0.54865     1.00135
C     -2.92434    -2.27687     0.93266
H      1.08082     0.55939     2.08972
C     -1.11265     0.38654    -1.14738
C      0.14714    -0.13939     0.20939
C      0.19680    -1.15689    -1.02881
