 18
no_name:-310.35753526626
C     -1.75892     1.11787     0.23621
C     -0.68810     0.27471    -0.19926
C      1.30883    -2.20690    -0.59121
H      0.46611     1.93086    -0.88470
C     -0.00707    -2.09292    -0.84665
H      1.87728    -3.05724    -0.97740
H      1.27592     0.36396    -1.06152
H     -3.41076     2.53684     0.94248
H      2.33311     1.74464     0.76473
C     -2.62999     1.87785     0.61276
C      1.38083     1.21814     0.93743
C     -0.93173    -1.04716    -0.41593
H     -0.48027    -2.90240    -1.41754
H     -1.97036    -1.37329    -0.29506
C      0.64779     0.96398    -0.38631
H      0.76755     1.83531     1.61282
H      1.85290    -1.49274     0.03000
H      1.60081     0.27462     1.46202
