 19
no_name:-348.410076668294
H      2.54263     2.57215    -0.34872
H     -0.10309    -1.15035    -2.46584
C      1.09728     0.53818    -1.48105
H      0.35577     0.73296     2.70161
C      0.12691    -0.60451    -1.54865
C      1.50520     2.34457    -0.06205
H     -0.53013     2.16448    -1.16370
C      1.05477     0.92772    -0.03251
H     -0.86642    -0.65597     2.44494
H      2.03597     0.49102    -2.05280
H     -1.68137    -2.52264    -0.90941
C     -0.40340    -0.88490    -0.33298
H     -2.33654    -1.50090     0.39833
C      0.15068     0.03036     0.70510
H      1.10293     3.00991     0.71159
C     -1.41306    -1.94233    -0.01451
C     -0.13440     0.03427     2.01923
H     -1.02718    -2.64153     0.74685
C      0.51882     1.87411    -1.09412
