  7
no_name:-191.183453384255
H      0.12380     1.82679     1.28611
C     -1.04229     0.45816    -0.17813
C      0.01274     1.11013     0.47783
C      0.60118    -0.10134     0.16619
C     -0.62115    -0.50697    -1.04786
C      0.44445    -1.27257    -0.55121
H      1.12258    -2.03109    -0.93081
