 16
no_name:-234.297292120777
C     -0.37086    -0.14942     0.88500
C     -0.00916     0.97347     0.23584
H     -2.06037    -1.19758     1.69968
H     -0.74052    -0.93600     2.85028
H      1.34209    -1.55595     0.59757
C     -1.28910    -0.47104     2.01167
H     -1.79672     0.42982     2.39005
H      0.80262     1.34325    -2.59846
C      0.64961     0.32582    -2.20090
H     -0.39804     0.04302    -2.39858
C      0.95347     0.26700    -0.70864
H      1.30221    -0.35732    -2.77036
H      2.01359     0.52713    -0.53077
H     -0.29954     2.02394     0.34046
H      0.01188    -1.78796    -0.58157
C      0.53132    -1.04482     0.04890
