 16
no_name:-346.517342315129
H      1.96369     2.87348    -0.53500
C     -1.72374    -1.58406    -0.98242
C     -0.87252    -0.69332    -0.32525
H      0.00992     1.36938     2.17280
H     -3.09300    -3.06004    -2.08928
C      0.48245    -0.25883    -0.84938
C     -2.44832    -2.37370    -1.57425
C      1.00312     0.71516     0.23143
C     -0.06235     0.76259     1.26866
H      3.35033     0.43610     0.99321
H     -2.02642    -0.19768     1.50072
C     -1.11576    -0.05077     0.91742
H      1.15964    -1.12135    -0.98524
C      2.47364     0.89503     0.54007
C      1.91029     1.88577    -0.08110
H      0.39815     0.22945    -1.83696
