 10
no_name:-305.197834502792
C      0.61014     0.84015    -0.67400
C      0.36471    -1.52667     0.56871
C     -0.60401    -1.92272     1.54301
C      0.94104    -0.52740    -0.10427
H     -0.49934     2.34716    -1.64115
C     -0.38895     1.72628    -0.74660
C     -0.88066    -3.32359     1.63783
H     -1.14046     1.80456     0.04295
C      1.86254     0.23727    -0.79155
C      0.07765    -2.92476     0.65647
