 13
no_name:-232.427133418899
H     -0.57154    -0.77797    -3.53179
C      1.17706    -1.14029     1.41076
H      2.10234    -1.15793     0.81241
C     -0.13738     0.03095    -0.35637
C      0.28562     0.00896     0.98475
C     -0.09697     0.98464     1.85819
H      1.44857    -1.05912     2.47334
C     -0.49300     0.01931    -1.54941
H     -0.74015     1.80767     1.53973
C     -0.88700     0.01571    -2.84731
H     -1.53077     0.80655    -3.24490
H      0.23298     0.96403     2.90010
H      0.67024    -2.10579     1.25108
