  9
no_name:-229.834135363626
C      2.00927    -0.79814     0.37046
C      1.31912     0.03278    -0.49596
H      3.03219    -1.13238     0.51958
H     -2.17479    -0.23491    -1.21572
C     -1.44249     0.05488    -0.46643
C     -0.07498    -0.12883     0.05259
H     -1.35159     1.50278     1.34344
C     -1.10849     0.76667     0.57996
C      0.73085    -1.28435     0.58699
