 11
no_name:-268.498199193955
H      0.07982     0.07319     2.83879
H      2.55122    -0.11523    -3.42474
C     -0.12167    -0.35098     1.84834
C      0.02209     0.10398    -0.75085
C     -0.02338     0.59770     0.68211
C      0.97577    -0.00249    -1.76756
C      1.81429    -0.05852    -2.64534
C     -1.34162     0.20826     1.08518
H     -2.27028     0.68439     1.39808
C     -1.10348    -0.42595    -0.26893
H      0.09953    -1.42059     1.72539
