 13
no_name:-307.206111069925
H      1.47789     0.38879     1.55768
C      0.13005     1.83782     0.39986
H      0.52394     2.80768     0.70672
H     -1.78652    -0.18472    -1.26571
C      0.66527     0.54484     0.84903
C     -0.41722     1.65027    -1.04691
H      0.17090    -4.11355     0.45952
C      0.10466    -3.04383     0.39380
C      0.03588    -1.83135     0.32739
C     -1.05955     0.31116    -0.62169
C     -0.07161    -0.42561     0.21977
H     -0.14121     2.09386    -2.00653
C     -1.35632     1.68266     0.00698
