  7
no_name:-191.135845706405
H      1.65682     0.15866    -0.54806
C     -0.44332     0.65604    -0.02285
C     -0.20356    -0.74944     0.25698
C     -0.63506    -1.97060     0.39236
C     -1.24839     1.63360    -0.32581
H      1.35154     0.46892     1.27250
C      0.94800     0.20408     0.28767
