 14
no_name:-307.88454291504
C     -0.08275    -0.50961    -0.69197
H     -3.71152     3.00862     1.77957
H      3.54524    -2.30230    -0.31287
C      2.03953    -1.00736     0.46098
H      1.38632    -1.78613    -1.47152
H      1.74137    -0.35308     1.28719
H      3.90888    -1.52394     1.34532
C     -2.87322     1.58578     0.19289
C     -3.32107     2.34243     1.03350
C      3.22601    -1.64331     0.50095
C     -1.19784     0.08294    -0.74283
H     -3.01361     0.55002    -1.69051
C     -2.37912     0.70943    -0.80728
C      1.09904    -1.13290    -0.63644
