  9
no_name:-304.562942697149
C     -0.74453     0.98891    -0.65762
C     -1.32092    -0.24039    -0.30909
H     -1.19457     1.97497    -0.77168
C      1.62751     0.30241     1.11052
C     -0.72438    -1.41793    -0.25880
C      1.42665    -1.02331     1.14979
C      0.60996     0.67071    -0.45582
C      0.58117    -0.93930    -0.01324
C      1.57115     1.38964     0.34080
