 11
no_name:-193.76885244623
C     -0.72960    -1.72140    -0.20681
H     -0.95737    -2.27263     0.72136
C      0.01058    -0.40926    -0.13680
H     -1.47835    -1.88586    -1.00025
C      0.88613     1.88494     0.08388
H      0.74240     2.93218     0.36208
C     -0.10639     0.98749     0.21120
H      1.63262    -1.84813    -0.94618
H     -1.07894     1.30803     0.60026
H      1.86804     1.59607    -0.30309
C      0.70060    -1.43018    -0.57407
