 17
no_name:-309.70591760366
H     -0.15807     2.80426     0.44843
C     -0.72885    -1.93107    -1.43905
C      0.41434     0.72519     0.82466
C     -0.77171    -0.94571    -0.67287
C      0.69248     2.12840     0.25721
C     -0.69089    -2.99421    -2.27380
H     -0.62670    -4.80208    -3.69526
H     -0.63665     1.39502     2.62214
H      1.12057     1.19845     2.83767
C     -0.80135     0.12352     0.16142
H      1.27924     0.08089     0.59366
C     -0.65495    -3.95800    -3.03249
H      1.58605     2.56857     0.72971
C      0.23024     0.76912     2.35002
H     -1.76816     0.60726     0.35874
H      0.85943     2.09272    -0.83025
H      0.06311    -0.23781     2.76254
