 17
no_name:-347.127622594727
C      0.62801     1.82386    -0.69586
H      0.30041    -0.23998    -2.30030
H     -0.90117    -3.46930     0.19488
H      1.23559     3.01378    -2.74008
C     -0.63462    -2.40512     0.26762
C      0.08694    -0.49216    -1.25445
H     -1.66446    -1.02601     3.13216
C     -0.68010    -1.90168     1.48993
C      0.24309     0.59007    -0.31146
C     -0.28847    -1.77533    -1.00585
C      1.02540     2.77883    -1.69853
H     -0.34671    -2.44990    -1.86477
H      0.12212    -1.50687     3.39587
H      1.08033     4.01441     0.26732
C     -0.74405    -1.46272     2.72228
C      0.96030     3.19720    -0.44172
H      0.04741     0.41426     0.74704
