 15
no_name:-308.484823350333
H      0.03999    -0.54224     2.43965
H     -0.33951     1.75926    -2.83500
C      1.22067     2.61688    -1.63891
C      2.08338     3.45871    -1.43356
H     -1.82708    -3.12837     0.96726
H     -2.18773    -2.24341    -0.64341
C     -1.60862    -2.30669     0.28027
H      2.84215     4.19534    -1.24805
C     -0.64418    -1.39487     0.57224
H      1.24684    -1.54339     1.61416
C      0.17251    -1.46097     1.84555
H     -0.12203    -2.32347     2.46079
C     -0.07468     0.61824    -1.05198
C      0.22433     1.66642    -1.89753
C     -0.35782    -0.33038    -0.31291
