 18
no_name:-347.871392114275
H      0.14137     3.42745     2.89688
C      0.31075     0.64808     0.78708
C     -0.10036    -1.35035    -1.23130
H      1.62368    -2.32398    -0.31927
C      0.55684     1.63575     1.83249
C     -0.94378    -0.19408    -1.12945
H     -1.11685    -2.22869    -2.94007
H     -1.76301    -0.07977    -1.84453
C      1.15019    -0.48938     0.69337
C      0.95944    -1.45680    -0.27453
C     -0.74243     0.76321    -0.15841
H      1.96886    -0.59860     1.41055
C     -0.14098     2.76140     2.07815
H     -1.40841     1.62790    -0.11906
H     -1.00803     3.05853     1.48182
H      0.34376    -3.19927    -2.28346
C     -0.30443    -2.32256    -2.21581
H      1.41277     1.41185     2.48032
