 16
no_name:-346.494579329764
C     -3.42962     0.88578     1.64539
H     -4.04110     1.75808     1.77760
H      2.49139     2.47003    -1.01656
H      0.77090     0.16894    -2.17451
C     -2.72739    -0.13001     1.49434
H      1.94461     0.70539     0.68402
C      1.38367     0.14701    -0.07995
C     -1.16082    -2.22588     1.14057
C     -2.01107    -1.23096     1.34747
H      1.86120     2.29333    -2.76542
C      1.33324     0.73142    -1.42147
C      1.92510     1.88959    -1.75213
C      0.81083    -0.98639     0.26746
H      0.76794    -3.05139     0.52587
C      0.21285    -2.10842     0.61866
H     -1.48249    -3.25236     1.37204
