  8
no_name:-266.56098187725
C      0.81433     1.38677     0.70539
C     -0.52533    -0.33951    -0.77793
C      0.96317    -0.21998     1.38893
H     -1.95795    -1.13692    -2.37617
C      0.38550     0.14441     0.16560
C      1.75271     0.87663     1.77970
C     -1.28103    -0.76409    -1.62930
C      1.66601     2.20952     1.59537
