 15
no_name:-345.897129893249
C     -0.83790    -0.91619    -0.41323
H     -1.63601    -1.07078    -2.37916
H      1.52483     4.36465    -0.95117
H      0.29867    -0.58067     2.79578
C      0.17305    -0.66109     1.71590
H     -1.90500    -1.26981     1.55418
C      1.33390     2.13376    -0.45817
C      1.43583     3.32026    -0.71803
C      1.22592     0.77221    -0.19981
H      1.17936    -1.18028    -1.36706
C      1.10599    -0.20576     0.68897
C     -0.96187    -1.02950     1.05777
H     -2.78562    -1.56091    -0.98943
C     -1.80379    -1.19714    -1.30636
C      0.60609    -0.54002    -0.68349
