 13
no_name:-307.245154682043
C      1.23443    -0.37719     1.87113
C     -1.40657     0.01014    -2.22855
H     -3.66339     1.10708    -4.87329
C     -2.23677     0.41340    -3.19927
H     -0.03170     1.30745     1.55084
H      1.93919    -0.85297     2.56143
H      0.91516     1.28121     3.16244
C      0.98991    -1.11364     0.62947
C      0.17460    -0.74452    -0.35587
H      1.53711    -2.06075     0.51341
C     -0.62711    -0.35993    -1.30109
C      0.67651     0.79848     2.21189
C     -2.99761     0.78621    -4.09436
