  8
no_name:-79.711999826146
H     -0.93487    -0.26347    -1.32038
C     -0.46525     0.45810    -0.63146
H      1.02331    -0.92502     0.17859
H      0.24532     1.06091    -1.22099
H     -0.48157    -0.85281     1.11977
H      0.69534     0.47420     1.22267
C      0.22843    -0.24753     0.53208
H     -1.25802     1.13795    -0.27778
