 10
no_name:-267.895561850372
C     -0.00574     2.06935     2.03815
C      0.40509    -0.88613    -1.63107
C     -1.00495    -1.36354     0.55306
C     -0.38093     0.94952     1.64865
H      1.71371    -0.17036    -3.41406
H      0.32392     3.03563     2.37025
C     -0.35637    -1.36482    -0.67000
C     -0.82589    -0.24968     1.30957
C      1.11489    -0.50847    -2.58932
H     -1.62108    -2.20987     0.88350
