 12
no_name:-194.383071641067
C     -0.39624    -1.01814    -1.62887
H     -0.10707    -0.75542    -2.66117
C     -0.59379     0.22839    -0.79697
C      0.06144     0.53544     0.29319
H      0.38252    -1.66769    -1.20386
H     -1.33482    -1.59503    -1.69491
H      0.98957     0.81943     3.57433
H      1.66746     1.43682     1.28883
C      0.74332     0.85537     1.42117
H     -0.53339    -0.06121     2.92275
H     -1.36539     0.92945    -1.15828
C      0.37400     0.51445     2.72570
