 15
no_name:-308.470313475229
C     -1.61147     1.43568    -0.52480
H      0.11640    -1.16443     1.24659
H      3.07509    -0.62961     0.39873
H      1.90900    -2.39786    -0.99568
C     -2.72613     2.20346    -0.50686
H     -4.62065     3.50736    -0.47509
C      0.86924    -1.04451     0.46261
C     -0.57880     0.73747    -0.54121
C      0.54691    -0.02883    -0.55279
C     -3.73826     2.89620    -0.48997
H      2.50878    -1.45854     1.93864
H      1.26937     0.11733    -1.36689
C      2.32006    -1.25793     0.88028
H      1.33560    -3.23869     0.53495
C      1.63228    -2.30020     0.05826
