 13
no_name:-344.630920036262
C      2.45783     1.47383     1.39295
C     -2.96145     0.00576    -1.97167
C      3.30416     2.31982     1.62385
C     -2.09620    -0.62647    -1.39758
C      0.65956    -0.32738     0.90108
H      4.04958     3.06385     1.83197
C      1.50608     0.52318     1.12898
C     -1.11158    -1.32306    -0.69843
H     -3.72146     0.56128    -2.48919
C     -0.20956    -2.25370    -0.56190
H      0.34646    -3.09353    -0.97068
H     -0.86322    -1.69777     1.52444
C     -0.33649    -1.33509     0.62742
