 18
no_name:-347.833926183539
C      0.18991     0.69702     0.49301
C     -1.15191     1.19740     0.01177
C     -2.11598     0.20012     0.12104
C     -1.57684    -0.97097     0.64720
H      0.19037    -1.04267     1.91747
H     -2.11842    -1.89990     0.83310
C     -0.09073    -0.80024     0.87476
H      1.64031     2.71965    -0.86621
H      2.16234    -1.10758    -1.69661
H     -3.16231     0.32125    -0.17003
H     -1.30907     2.20082    -0.38688
H      0.76765    -2.67103    -0.14254
C      1.48353    -0.77302    -0.90848
C      1.25997     0.64123    -0.60170
H      2.61495     1.55914    -1.95790
C      0.76678    -1.57898    -0.10350
H      0.55633     1.29245     1.34839
C      1.86874     1.69426    -1.17007
