 11
no_name:-305.917557325218
C     -1.44709    -0.91653    -0.33759
H     -2.37674    -1.42891    -0.09201
C     -0.55393    -0.31892     0.48969
H      0.89570     0.19927    -2.61142
C     -0.88251    -0.73254    -1.70355
C      1.47268     0.82319     0.52093
C     -0.20691     0.00930     1.89735
C      0.56253     0.23616    -0.31657
C      0.90458     0.62890     1.89119
H      2.40753     1.32214     0.26550
C      0.28425    -0.06723    -1.75114
