 13
no_name:-269.861074277426
C      0.46299     3.00551    -0.74487
H     -1.17664    -1.48068    -0.88215
H     -0.40008    -3.85441    -0.21963
H      0.65829     5.16230    -1.49863
C      0.34606     1.71886    -0.29331
C      0.23691     0.56703     0.10731
H     -0.13114    -3.27849     1.45132
C     -0.73038    -3.12460     0.54104
C      0.56624     4.15269    -1.14537
C      0.12992    -0.75790     0.59978
C     -0.61389    -1.72723     0.02600
H      0.69984    -0.98784     1.51016
H     -1.78168    -3.37400     0.77106
