 13
no_name:-307.278460824495
H     -1.22922    -0.40357    -2.26100
H      2.29839    -1.03791     0.18780
H      1.08031    -1.37510    -1.91932
C      0.61770    -0.79669    -1.11601
C     -0.69569    -0.24952    -1.32041
H      1.29856     0.28369     2.08779
C      1.30129    -0.60622     0.06894
C      0.74163     0.14448     1.15844
C     -1.20565     0.45658    -0.27511
C     -0.50917     0.66024     0.95394
C     -2.32160     1.27754     0.35751
C     -1.67341     1.47826     1.52416
H     -1.87238     1.99028     2.46313
