  9
no_name:-155.035107425925
H      0.33909     1.50188    -1.08426
C     -0.46026    -0.41392    -0.33671
C      0.42237     0.84142    -0.20516
H      0.05163    -1.33078     1.55869
C     -0.53332    -1.41161     0.64014
H      1.47509     0.53551    -0.11033
H      0.10772     1.41462     0.67983
C     -1.05847    -0.26267    -1.53144
H     -1.17471    -2.28328     0.50100
