 16
no_name:-383.888695505547
H     -0.35994     0.49637    -2.62070
C      0.13195    -3.20121     0.03487
H      1.34421     0.61575    -2.18769
C      0.16059    -4.39649     0.25898
H      0.18721    -5.45412     0.44544
C      0.33294     0.50665    -1.76394
H     -1.22772     2.60641     3.73330
C     -0.01694     1.60731    -0.69228
C     -0.65652     1.47745     1.82394
C     -0.96066     2.08657     2.83336
H      0.81621     2.31989    -0.56442
H     -0.89057     2.20574    -1.00344
C     -0.14373    -0.50069     0.36805
C     -0.30138     0.82592     0.61802
C      0.22260    -0.76153    -0.98412
C      0.09019    -1.82191    -0.18332
