 11
no_name:-231.15197539011
C     -0.59810     0.05340     2.23067
C      0.70450    -0.02717    -1.34025
H     -1.89694     0.28875     4.10163
H     -0.53146     0.51575    -3.14990
H      1.26003    -0.43108     1.26625
C     -0.17194     0.13901    -0.18533
C      0.22947    -0.09847     1.08731
H     -1.19851     0.47097    -0.37012
H      1.73034    -0.36233    -1.12327
C      0.35409     0.19354    -2.60008
C     -1.28445     0.17840     3.22667
