 17
no_name:-309.752609414933
C     -0.30980     1.26224     0.33334
C      0.11563    -0.05644     0.33983
H     -1.76245     3.62799    -1.73064
H     -0.88310    -1.49644    -1.06192
C      0.11375    -1.16456    -0.72594
H      1.01008    -0.78458     2.32760
H      1.61934    -3.72617     1.33856
H     -1.23550     3.83716     0.04920
C     -1.32137     3.19239    -0.83119
C      1.18267    -3.31296     0.42500
C     -0.89457     1.90212    -0.80149
H     -1.00005     1.29286    -1.70754
C      0.75672    -2.03137     0.37408
H      1.10225    -3.97157    -0.44366
H     -0.19180     1.84739     1.25283
C      0.70498    -0.91505     1.28630
H      0.75043    -0.97686    -1.60686
