 13
no_name:-269.856670676164
H     -2.14494    -1.44409     3.43933
H     -2.59892     0.46627     0.00909
C     -1.97036    -0.94099     1.41053
H      1.32442     2.07659    -2.70923
C      0.61277     0.38569    -0.67210
C      1.88879     0.63188    -1.24701
H     -2.44779    -2.82182     2.20755
H      3.14020     1.62764    -2.64453
C      2.12856     1.49203    -2.25438
C     -2.19861    -1.76963     2.39306
C     -0.46875     0.14925    -0.15900
H      2.72502     0.06440    -0.81873
C     -1.74587    -0.09524     0.41743
