 18
no_name:-385.260576074623
C     -0.81690     1.96430     0.64076
C     -0.16658    -0.90539    -1.89569
C     -0.45439     0.80010    -0.16766
H     -1.46725     2.77916     0.32461
H     -0.24729     2.52086     2.68149
C      0.43799    -0.04081     0.65372
H     -0.23792    -3.09600    -0.97234
H     -1.40841     0.95032    -2.08501
H      1.60916    -1.90679     0.67014
C     -0.18873     1.82370     1.84385
C      0.59565     0.57399     1.85730
C      0.06102    -2.04863    -0.92375
H      1.19355     0.22157     2.69930
H      2.09150    -1.64305    -2.01669
C     -0.75433     0.38198    -1.41664
H     -0.43691    -1.20458    -2.91406
C      0.94713    -1.29045     0.05123
C      1.21989    -1.32590    -1.44365
