 13
no_name:-307.228151728384
C      1.44313     1.13729    -1.11355
C      0.25030    -0.02356     0.77476
C     -1.84560    -1.47492     0.41847
C     -0.74439    -0.81809     1.26594
H     -0.78276    -1.01753     2.34192
H      3.14742     2.48029    -1.86374
C     -1.53403    -1.03355    -0.95151
H     -2.84878    -1.15789     0.76626
C     -0.63038    -0.31342    -1.38601
H      0.98564     0.39518     1.46752
C      0.41045     0.31715    -0.64161
C      2.35155     1.85125    -1.51186
H     -1.82995    -2.57602     0.54106
