  9
no_name:-229.839367948312
C      1.86807    -0.34203     0.40873
C      1.29408    -0.89589    -0.81973
H      2.86557    -0.42465     0.82997
H     -2.47737     0.53057    -0.58841
C     -1.65883     0.68320     0.11865
C     -0.44962     0.14259    -0.09001
H     -1.84234     1.29042     1.00954
C      0.08399    -0.70072    -1.17245
C      0.74782     0.29093     0.82079
