 11
no_name:-231.171744397579
C      0.77409    -0.61909    -0.88304
H      0.02183     1.23052    -1.76679
H      0.43705    -1.32052     1.09990
H      1.25928    -0.83291    -1.84170
H     -2.41035     2.26815     3.17289
C      0.02099     0.64172    -0.83622
C     -0.64634     1.12149     0.20422
H      1.48771    -2.41263     0.00525
C     -1.28273     1.52920     1.28657
C      0.90602    -1.49573     0.12665
C     -1.88804     1.92724     2.29918
