 13
no_name:-307.180595007756
C      1.28062    -0.42648     1.79972
H      0.93435    -0.99795    -1.96293
C     -0.14705     0.00995    -0.38026
C      2.10256    -0.78077     2.62444
C      0.31540    -0.01430     0.88194
H     -0.87428    -0.25353    -3.80307
H      2.83492    -1.09252     3.34574
H     -2.71775     1.75865     0.28925
C      0.03761    -0.39236    -1.74753
H     -2.07609     1.72856     2.05371
C     -0.79836    -0.07600    -2.73009
C     -0.91998     0.70228     0.61167
C     -1.96097     1.43691     1.00786
