 17
no_name:-309.753898325655
H      1.99891     4.13007     1.47009
H     -1.53320    -0.27106    -1.67261
C     -0.71093     0.52521     0.17556
H      2.76995    -0.04334     0.68529
C     -1.56525    -0.50420    -0.59569
C      0.54349    -1.47710    -0.03220
H     -0.66858     1.51147    -0.31192
H     -2.62302    -0.49991    -0.29287
C      1.89760     1.89401     0.95034
C      1.95018     3.08573     1.22688
H     -0.94987    -2.55095    -1.21490
C     -0.87126    -1.86615    -0.35274
H     -1.32522    -2.40694     0.50320
H      1.37713    -2.18314     0.00638
C      0.65424    -0.13487     0.26610
H     -1.09986     0.69998     1.19548
C      1.83941     0.53334     0.63821
