 14
no_name:-270.416047211706
C      0.80524    -0.76121    -0.53816
C     -0.61996    -0.44485    -0.24271
C      1.66578     0.49626    -0.24012
H      1.10841    -1.43711    -1.34059
C     -0.56289     0.54028     0.92388
C      0.94993     0.67826     1.10492
H      2.29373     1.11895    -0.87532
H     -1.04866     0.13132     1.82682
H      1.39530     1.33649     1.85513
H     -2.71277    -0.62345    -0.57699
H     -1.05235     1.50014     0.68500
H     -1.61005    -1.63655    -1.69265
C     -1.70237    -0.92429    -0.86767
C      1.65648    -0.58019     0.69211
