 14
no_name:-307.860499379885
H     -1.52967     1.41336    -1.49205
C      0.44305    -1.73290     2.41461
C     -0.29657    -0.95613     1.52280
H     -0.50059     2.57127    -3.38280
H     -2.54085    -0.39164     1.30516
C      0.27374     0.51618    -0.68765
C     -1.46941    -0.45676     1.12361
C     -0.44654     1.33118    -1.65077
C      1.11990    -2.40257     3.17137
H      1.18011     1.92149    -2.89488
H      1.70768    -2.99348     3.84945
H      1.35596     0.40334    -0.80516
C      0.10466     1.97443    -2.69626
C     -0.32761    -0.10660     0.34061
