 11
no_name:-268.568372789766
H      2.25600     0.68966     3.26244
C      1.26793     0.05492     1.29664
C      0.62544    -0.33235     0.12067
C     -1.67591     0.48380    -0.73919
H     -3.13054     2.20012    -1.14743
C      1.78888     0.38965     2.34290
C      0.59625    -0.66045    -1.14096
C     -0.75686    -0.60672    -0.48143
H      1.11661    -0.82222    -2.08160
H     -1.25326    -1.55253    -0.21223
C     -2.44805     1.39372    -0.95615
