 12
no_name:-231.792586442065
H      3.41830     0.89451     1.35226
H     -2.01075    -0.65640     0.94798
C      0.02438    -0.04690     0.19472
C     -0.45391    -0.54277    -1.14749
H     -1.06185    -1.45978    -1.18562
H     -1.00202     1.72438    -0.92911
H      0.24179    -0.42080    -1.98473
C     -1.32791     0.19709     0.81750
C      1.32151     0.33366     0.62868
H     -1.36298     0.93810     1.62347
C      2.43527     0.62637     1.01459
C     -1.03747     0.70073    -0.55923
