 12
no_name:-306.54350981468
H     -2.05797    -0.64916     0.61016
C      1.12306     0.42377     0.69384
H      2.72873     0.41734     2.39344
H     -2.66473     1.55090    -3.03796
H     -0.00878    -2.42419    -0.98164
C      2.10426     0.72797     1.55471
C     -1.34248    -0.50138    -0.21282
C      0.14035    -0.44997     0.18999
C     -0.26692    -1.52717    -0.42377
C      1.73619     1.72792     0.63869
C     -1.85681     0.29025    -1.30991
C     -2.29015     0.95721    -2.22527
