 12
no_name:-194.360451720542
H      0.84248     0.02178     1.56353
H     -0.76497     0.21695    -2.57407
H     -1.58028    -0.85103     1.94988
H      1.02463     2.32242    -1.17378
H      2.11144     0.92129    -1.65983
C      0.29186     0.30158    -0.46581
C      0.13250    -0.25489     0.77639
C      1.10725     1.23299    -1.32611
C     -0.95483    -1.22395     1.11793
H     -1.61098    -1.41599     0.25565
H     -0.53972    -2.19166     1.45573
C     -0.09112     0.45192    -1.75485
