  9
no_name:-304.596453745759
C     -0.05170    -0.00488     1.65958
H      2.64537    -0.28982    -2.53880
C     -1.35993     0.00438     1.80967
C      1.24746    -0.17035    -0.77271
C     -1.94752    -0.07599     0.64319
C     -1.55023    -0.16111    -0.60502
C     -0.19692    -0.16341    -0.65421
C      0.67459    -0.07963     0.55863
C      2.33433    -0.21938    -1.50158
