 11
no_name:-305.844721833847
C     -1.00581    -0.16560    -0.89489
C     -1.57780    -1.25293    -1.38879
C      2.28278     0.62387     2.19287
C      1.42055     0.84203     1.36470
H     -2.46738    -1.67304    -0.91547
H     -1.17040    -1.73542    -2.27937
C      0.10978     0.80733    -1.04919
H      3.04502     0.43631     2.92601
C      0.42952     1.09176     0.41110
C     -1.05718     0.86418     0.17853
C     -0.39021     2.03021    -0.41108
