 16
no_name:-383.860988321936
C     -0.96815    -0.88399    -0.65058
H     -0.75289    -2.95449    -1.67210
H      2.96647     4.96884    -0.34234
H      0.72569    -0.88693     2.39949
C      0.41426    -0.51860     1.41485
H     -0.82396    -2.19485     1.12005
C      2.03270     2.97315     0.29274
C      2.52765     4.03639    -0.03991
C      1.47491     1.78309     0.67218
H     -0.57980     0.06532    -1.03486
C      0.97443     0.71457     0.99917
C     -0.45935    -1.25475     0.69176
H     -3.20226    -1.40675    -0.31728
C     -2.40144    -1.17463    -1.03134
C     -1.18283    -1.94501    -1.70578
C     -2.35505    -1.53912    -2.40959
