 17
no_name:-347.164845509659
C     -0.50255     0.45934     1.84082
C      0.54068    -1.59729    -0.19106
C      0.06295    -0.18314    -0.43470
C      0.04999     0.52972    -1.83223
H     -0.95307     0.88084    -2.12846
H     -0.51519    -2.69410     1.45779
H      1.24743     2.59032    -1.50646
H     -2.06530    -0.39158     0.50373
H      1.36642    -2.16848    -0.62519
H     -0.95843     0.45864     2.83518
C     -0.98637    -0.45743     0.72168
C      0.80044     1.03578     0.06486
H      1.04314     1.96261     2.14347
H      0.48539    -0.04207    -2.67141
C      0.89032     1.61782    -1.15593
C     -0.35354    -1.85128     0.78019
C      0.54505     1.24570     1.48704
