  7
no_name:-153.810851225377
H      2.24860     0.54161     0.68820
C      0.30811     0.46248    -0.56692
C     -0.90490    -0.21047     0.01865
H     -0.96155    -1.28920    -0.17281
C      1.20925     0.30912     0.47000
H     -1.88152     0.28455    -0.06625
C      0.01296     0.17305     1.14893
