 11
no_name:-343.298258596682
C      2.47278     0.78208     1.38568
C      1.34103     0.56865     0.65071
C     -1.78075    -0.84574    -0.90903
H     -3.65693    -1.98368    -1.52835
H      4.37041     1.14452     2.62164
C      3.48036     0.97700     2.04431
C      0.33773     0.35995    -0.02020
C     -2.84051    -1.28211    -1.66851
C     -2.66842     0.03142    -2.14873
C     -0.84451     0.17153    -0.73411
C     -1.43587     0.54529    -1.97067
