 14
no_name:-270.472221905617
C     -0.96060     0.94853     0.06249
C     -0.33844    -0.93996    -1.45759
C      0.13282     0.22792    -0.70978
H     -1.90221     1.25902    -0.39087
H     -1.14708     1.70247     2.11940
C      1.20371    -0.09973     0.38991
H     -1.07677    -2.77111    -2.60834
H      0.57290     0.93286    -1.44419
H      1.26031    -1.19034     0.56033
C     -0.55446     1.16745     1.37350
C      0.70262     0.61887     1.61300
C     -0.72906    -1.91158    -2.06729
H      1.24336     0.65512     2.56017
H      2.21586     0.21692     0.08475
