 11
no_name:-268.533661494053
C      0.71376    -0.29805    -1.30983
C     -1.17057    -0.30174     0.09851
H     -2.02928    -0.82825     2.10630
H      2.71326     0.46878    -0.65485
C     -0.63080    -0.60343    -1.15601
H     -1.20967    -1.04851    -1.97044
C      1.65998     0.25532    -0.46342
H     -2.48152     0.85285     1.51061
C      0.92805     0.46960     0.68921
C     -0.34999     0.25266     1.04053
C     -1.80378    -0.00849     1.40695
