 13
no_name:-269.817765245871
C      0.20319     0.19727     0.01478
C     -1.35847    -1.09872    -1.36516
H     -0.43905    -1.76457     0.46188
C      1.08549     0.37185     1.18892
H      3.31401     1.35804     0.70970
H     -2.73689    -1.42503    -3.16350
C     -2.09110    -1.27340    -2.31960
H      0.13882     1.04310    -0.67998
C      1.31409     1.74597     1.79218
H      0.85871     2.53919     2.38042
H      1.11490    -0.50757     1.85347
C     -0.50841    -0.92140    -0.23793
C      2.30912     1.26738     1.11534
