 11
no_name:-305.913608765116
H      2.24712     0.73267     0.14671
C      0.15708    -1.81621     0.58903
C      0.46562    -0.60113     0.05912
C     -2.04498    -1.16806     0.83016
C     -0.65137     0.41357    -0.07886
C     -1.92479     0.02378     0.34858
H      0.12580     2.38195    -0.98566
C      1.44168     0.41112    -0.53596
C     -1.07269    -2.05645     0.94718
C      0.23628     1.35833    -0.62850
H      1.88660     0.11240    -1.50083
