 14
no_name:-307.850548069352
H      1.19895    -1.02073     1.06245
C      0.21239    -0.90544     0.59575
C     -0.65627    -1.90260     0.65873
H     -2.22926    -2.96662     1.54913
C      1.25791     2.57620    -0.45116
H     -1.95101     1.55803    -0.29272
H      2.77529     4.29053    -0.54586
C     -0.06934     0.34161    -0.05562
C     -1.51604    -2.88262     0.71984
C      2.06324     3.48802    -0.50344
C      0.31633     1.55062    -0.40974
H     -1.28358     0.88181    -1.87519
H     -1.55612    -3.65694    -0.05627
C     -1.08349     1.12907    -0.82000
