 17
no_name:-384.560580243759
C      1.19690    -4.09617    -1.99204
C     -0.41166     1.96348     1.84298
C      1.57652    -5.22319    -2.27669
C      0.39748    -1.70201    -1.38581
H      1.90630    -6.21339    -2.52848
C     -0.81082     3.19262     2.16506
H     -2.23563     4.61620     2.76219
C     -0.43428     1.41514     0.51665
C     -1.19694     4.39969     2.47942
C     -0.01060     0.12988     0.21494
C      0.77778    -2.84153    -1.67258
H     -0.80684     2.05443    -0.29082
H     -0.03759     1.31790     2.64970
C     -0.02631    -0.41699    -1.07730
H      0.36027    -0.50157     1.03018
H     -0.39564     0.20584    -1.90218
H     -0.49868     5.24714     2.46968
