 14
no_name:-307.878265092756
C     -0.35430     0.42574     0.75116
C      0.30653     0.26637    -1.47059
C     -1.37399    -1.42996    -0.67012
H      0.73484     1.06993     2.58237
C     -2.14011    -2.36440    -0.81023
H     -1.19896     0.48394     1.44076
H     -2.81508    -3.18947    -0.93776
H      1.89939     1.82358    -1.32326
C     -0.46795    -0.35435    -0.48222
C      1.01096     1.35703    -0.89264
H      1.94627     0.19338     1.49431
C      1.03606     0.80573     1.56238
C      0.56513     1.52868     0.41580
H      0.42249    -0.10396    -2.49078
