 17
no_name:-347.179497594604
C      0.70007    -0.88308     0.80901
C     -1.81529     1.42850    -0.68975
C     -0.22578    -0.24588     0.12662
H      5.26092    -1.51329     0.67610
H      0.12929     1.89674     0.25793
H     -2.54636    -0.01658    -2.31129
C      1.63256    -1.52888     1.48713
C     -1.86597     0.14002    -1.47073
C      3.02493    -1.51010     1.16145
H     -0.84244    -1.77898    -1.40997
C     -0.70713     1.19039     0.37185
H     -1.58676     2.28798    -1.34476
C     -0.99122    -0.77357    -1.01357
C      4.21287    -1.51423     0.90848
H     -1.08449     1.30403     1.39931
H     -2.79322     1.65317    -0.22720
H      1.34297    -2.13161     2.36217
