 13
no_name:-232.428208225454
C     -1.59833     0.63543     0.93509
H     -3.66010     0.72717     0.30340
H      1.86286    -0.46371    -1.86865
C     -0.44658     0.20193     0.36003
H      3.71979    -1.53580    -0.69307
H      2.80351    -1.40538     0.93549
C      1.78727    -0.62453    -0.78474
H     -2.49634     1.39015    -0.88075
C     -2.71966     1.29748     0.19179
C      2.82980    -1.22331    -0.14190
C      0.60864    -0.18921    -0.17455
H     -1.72052     0.49328     2.01659
H     -2.91933     2.30764     0.59412
