 13
no_name:-382.017695434552
C      1.44071     0.13657    -1.62923
C     -2.30645    -0.50361     1.37982
C      0.87237     0.69382     0.70273
H      2.87701     0.14784    -3.41515
C     -1.23716     0.16951     1.93271
C      0.53725     0.11290    -0.54139
C      2.20686     0.14230    -2.57544
H      1.84738     1.17351     0.82457
C     -1.88746    -0.77632     0.02541
C     -0.08419     0.61414     1.71191
C     -0.77192    -0.52127    -0.68937
H     -3.25511    -0.77728     1.84043
C     -1.82757    -1.21288    -1.35439
