  9
no_name:-192.45584185959
H     -0.56042     1.59787     1.26164
C      0.01124     1.25609     0.39009
C      0.49107    -0.18357     0.40439
H      0.85459    -1.01075    -1.84639
C     -0.71381    -0.96186     0.06644
H      0.69580     2.00299    -0.03035
C      0.31252    -0.62972    -0.98877
H     -1.37503    -1.73202     0.44612
C     -0.71054     0.35512    -0.59489
