 11
no_name:-343.382305100648
C      1.79221     0.99777     0.74133
C      1.10859    -0.04583     1.35810
C     -1.76455    -1.20980    -0.20503
H     -2.97697    -0.77084    -2.06409
H      2.69955     1.52732     1.02488
C     -1.10995     0.30398    -1.45797
C      0.96260     1.14193    -0.33295
C     -0.03701     0.92869    -1.11622
C     -0.95838    -1.29855     0.76702
C      0.13574    -0.85583     1.36169
C     -2.13680    -0.59303    -1.39581
