 15
no_name:-233.636200075592
H      1.13287     1.62821     1.03746
H      1.93072    -1.03670    -0.31415
C     -0.00972    -0.93650     0.65150
C     -1.90028     0.04903    -0.73571
H      1.05556     1.31420    -0.70823
H     -3.71533     1.45840    -0.92454
C     -0.81614    -0.78904    -0.60675
H     -0.49699    -0.38168     1.47015
H     -0.00208    -2.00274     0.94792
H      2.63216     1.33585     0.12152
C     -2.87107     0.80217    -0.83133
C      1.44989    -0.46275     0.49867
H     -0.49895    -1.36378    -1.48618
C      1.57722     1.03416     0.22111
H      1.99883    -0.72222     1.42078
