 10
no_name:-342.641356761332
C      1.12677     0.59419    -0.47909
C     -0.15446     0.06415    -0.26450
C      0.68602     1.43241    -2.18640
C     -0.65740    -0.71984     0.82434
C     -1.78102    -1.39666     1.38837
C     -0.50299    -1.34445     1.99340
C     -0.59246     1.21152    -2.50982
H      0.13357    -1.62775     2.83212
C      1.75911     1.32167    -1.39843
C     -0.82922     0.50698    -1.41134
