 13
no_name:-307.197537269968
H     -1.13256     1.39118    -2.06205
H     -0.99272     0.11032     3.68578
H     -0.23105    -1.86847    -4.73365
C     -0.46613    -0.44276    -2.94710
C     -0.17184     0.17584    -0.58490
H      1.75741     1.62653     3.03602
C      0.68188    -0.29994     1.90228
C     -0.07852     0.22910     3.10989
C     -0.34180    -1.20067    -3.90047
C     -0.62233     0.43771    -1.87343
C      1.03053     0.84061     2.84735
C      0.21832    -0.03733     0.56153
H      1.22827    -1.25139     1.99971
