 11
no_name:-343.217825326135
C      2.91352    -1.19501     2.36173
C     -1.17134    -0.34711    -0.12592
H     -1.10727     1.96792    -2.47071
C      1.56064    -1.30390     1.91061
C      2.50799    -0.27627     1.34375
C      1.16133    -0.38702     0.89913
C     -0.96939     1.23407    -1.67518
C     -1.88746     0.24169    -1.12764
H     -2.92044     0.00752    -1.38946
C      0.19584     0.05158     0.07799
C      0.15685     1.08835    -0.91823
