 10
no_name:-267.943888589961
H      1.02649    -1.58192     1.78536
H     -0.12117    -2.34576    -0.33920
C      0.61665    -0.87068     1.06190
C      0.14821     1.41952     0.28466
C     -0.01422    -1.28131    -0.10428
C     -0.52996    -0.31330    -1.00752
C     -0.50823     1.05266    -0.91928
H     -0.92911     1.73627    -1.66204
C      0.78903     1.93960     1.47772
C      0.65823     0.54044     1.19204
