 11
no_name:-268.539492832893
C      0.73329     0.90177     0.18974
H      0.20513    -0.42711    -2.87527
H      1.41753     1.70008    -0.10559
H     -1.04391    -1.67478    -1.35873
C      0.37658     0.74251     1.53637
H      0.75680     1.39216     2.32723
C      0.25012     0.06293    -0.87291
C     -0.66366    -1.02358    -0.56924
C     -0.93347    -1.07205     0.77543
C     -0.50297    -0.32988     1.69937
C      0.68779     0.32779    -2.20984
