  8
no_name:-229.189388606523
C     -0.74564     0.24592    -0.02430
H     -0.09802     0.25139     2.16124
C      0.05424     0.26115    -1.04411
C      1.75657     0.21080    -2.98929
C      0.90448     0.23820    -2.02081
C     -0.75492    -0.27422     1.44967
H     -0.80457    -1.36649     1.58586
C     -1.85281     0.43806     0.79301
