 10
no_name:-305.255051361595
C     -1.28292     0.67614    -0.96994
C     -1.50400    -0.55280    -0.51122
C     -0.07942     1.20691    -1.16878
C     -0.56281    -1.00011     0.44091
C      0.89841     0.80429    -0.23368
C      0.65844    -0.21567     0.85101
H      1.53145    -0.87478     0.97840
C      1.34570     1.57755    -1.25495
C     -1.48281    -1.91711     0.04842
H      0.47993     0.29022     1.81636
