 10
no_name:-267.843892046953
C     -0.00525     0.18113     0.04157
C      0.32889    -0.93721    -0.89282
H     -0.52401    -3.02745    -0.00704
C      0.44531     1.30622     0.64002
H      1.21933     3.21635     1.67887
H     -1.41762    -1.15250    -2.56356
C      0.86095     2.32313     1.20190
C     -0.55998    -2.02480    -0.41990
C     -1.18872    -0.70249    -0.19069
C     -0.96436    -1.17634    -1.57815
