 16
no_name:-346.50272306515
H     -1.68516     1.99965     0.71228
C      0.00968    -1.06860     0.41111
H     -0.04224    -2.62463     3.77716
H      1.99775     0.73634    -0.82493
C      0.51793    -0.58268    -1.87391
C     -0.00029    -1.69162     1.68852
H     -0.91549     1.21543    -1.86824
C     -0.20431     0.64109    -1.26873
C     -0.02292    -2.17380     2.80292
H     -1.47573     0.67269     2.01994
C     -0.56854     0.28657     0.14552
C      1.26022     0.71422    -1.63249
H      0.32247    -0.91897    -2.89549
H      1.51643     1.31162    -2.51226
C     -1.28185     1.02656     1.00439
C      0.52954    -1.52170    -0.75060
