 11
no_name:-231.197021930324
H      1.88256    -2.00962    -1.07596
C     -0.86865    -0.10644    -0.67535
H     -1.86398     0.28433    -0.88827
C      1.20147    -0.45726     0.32313
H      0.39928     1.53238     2.16987
C      1.13734    -1.29435    -0.72727
H     -1.26668     1.80989     1.36129
C     -0.19014    -1.06323    -1.36047
C     -0.01972     0.34708     0.45316
C     -0.31050     1.27970     1.37815
H     -0.54228    -1.59807    -2.24496
