 13
no_name:-307.173573182394
C      1.22620     0.24590     0.69891
C     -1.31864     0.44554    -2.27161
H     -2.37291     0.85399    -4.29136
H      1.69191    -1.84268     1.88968
C     -1.89065     0.66088    -3.35249
C     -0.11287    -0.01376     0.02567
H      0.61248     0.87202     2.98524
H     -1.26453    -1.18128     1.78040
C      1.08734    -0.99243     1.58949
H      2.14063     0.74234     0.37122
C     -0.71327     0.21199    -1.11367
C      0.59158     0.25413     2.09282
C     -0.39344    -0.66919     1.36927
