 12
no_name:-231.80462519816
C      1.24233    -1.60408    -0.91194
H      1.52965    -1.86796    -1.93258
C     -0.67302     1.02942     0.86518
C     -1.37857     2.19488     0.38940
H      1.58280    -2.26684    -0.10946
H     -1.69592     2.82535    -0.43880
H      0.18477     0.12095    -1.49035
C      0.50142    -0.51160    -0.65047
H     -1.69616     2.28512     2.68703
H      0.35915    -0.67164     1.53525
C      0.06788    -0.07398     0.66536
C     -1.37869     1.96917     1.69493
