  9
no_name:-304.623757842949
C     -1.05085     0.47389    -0.32853
H      0.27685    -1.31020     2.22257
C      0.09957     0.68902    -1.17211
C      0.17079    -0.81855     1.25053
C     -1.03064    -0.35617     0.76121
C      1.28534    -0.69990     0.34495
C      1.23870    -0.03572    -0.87862
C     -0.95180     1.61571    -1.15705
C      2.15767    -1.12434    -0.69422
