 17
no_name:-347.128259832834
C     -0.61951    -0.63489     2.07726
C     -0.45329    -1.40103     0.78508
C      0.28299     0.81996     0.56924
C      0.30397    -0.13710    -1.55855
H      1.02754    -1.93779    -2.41506
H     -1.42860    -1.71906     0.37379
H      0.16531     2.91778    -0.06056
H     -0.25916     1.43578     2.68677
H      0.14960    -2.32026     0.89770
H     -0.97540    -1.09004     3.00342
C     -0.23412     0.65723     1.92365
C      0.56579     1.94699    -0.38232
H      1.63375     2.03029    -0.65512
H      0.65435    -0.54498    -3.61262
C     -0.31736     1.16488    -1.34583
C      0.67922    -0.91710    -2.58628
C      0.17313    -0.37691    -0.11516
