 10
no_name:-230.496420262755
C     -0.87042    -0.55222    -0.46437
C     -2.04911    -1.05081    -0.84972
H      2.29441    -0.96386     0.51466
H     -0.40381     0.16090     1.52966
H      1.29279     1.98039    -0.31021
H     -3.07996    -1.32818    -0.62328
C      1.52707    -0.20615     0.38804
C      0.02809     0.02669     0.52654
C      1.12642     0.97268     0.05824
C     -1.02457    -0.98361    -1.81780
