 13
no_name:-307.226606352909
C     -0.63461     2.12306     1.99203
C      0.02983    -1.35916    -0.85946
C     -0.17855    -2.67765    -1.16747
H     -1.64703     2.55282     2.01667
H     -0.52497    -4.88429    -1.68336
H     -0.09427     2.09263     2.94979
H      1.61651     1.58740    -2.05785
C     -0.10634     1.67209     0.88997
H      1.37223     3.05988    -0.90657
C      0.21939    -0.18303    -0.58973
C      0.44126     1.20065    -0.27016
C     -0.35970    -3.85114    -1.44211
C      1.19933     2.00879    -1.14264
