 13
no_name:-344.678664393535
H     -0.01277     1.74749     0.77655
C     -0.20817     0.67280     0.81707
C      0.18854    -0.10696    -0.34433
C     -0.80417     0.11608     1.92989
C     -0.62107    -2.01995     0.75039
C     -0.01261    -1.48778    -0.40310
H      1.76665     1.70644    -3.18155
C     -0.98997    -1.28251     1.83133
H      0.28992    -2.06259    -1.28214
C      0.79790     0.58618    -1.43749
C      1.31317     1.18196    -2.36072
H     -1.09371     0.72736     2.78953
C     -1.23634    -2.70141     1.86591
