 12
no_name:-306.46418943156
C      0.62669     1.05848    -0.49827
H     -2.50383     0.41138    -0.66789
C      0.68869     0.50368     0.93294
H      1.28174     0.96887     1.72174
C      0.41909    -0.95744     0.87245
C     -1.47117     0.24564    -0.35674
C     -0.89356    -1.04602     0.14569
C      0.17750    -1.41877    -0.66674
H      1.35355     1.71322    -0.98116
H      0.69811    -1.67686     1.64359
C     -0.19212    -0.05404    -1.17943
C     -0.54171     1.26388     0.35034
