 15
no_name:-345.819864173722
C     -0.34548    -1.27764    -0.09809
H     -3.38624     3.13045     1.78804
H      4.17147    -0.44586     0.03788
C      2.01169    -0.09141    -0.43288
H     -0.65596    -2.23953     0.33600
H      1.84730     0.91386    -0.02100
H      2.36058    -2.07811     1.17772
C     -2.66535     1.50980     0.34252
C     -3.04914     2.37204     1.10712
C      2.26571    -1.62218     0.18187
C     -1.28842    -0.37954    -0.33108
H     -2.73859     0.49926    -1.56292
C     -2.23297     0.50761    -0.58339
C      3.26537    -0.80127    -0.46315
C      1.05207    -1.15318    -0.40456
