 19
no_name:-348.352587410177
C     -0.40362     0.07868     1.22982
C     -0.46303     1.35343     0.79624
H     -1.59058    -1.11817     2.57571
H      0.14008    -1.10184     2.95514
H      0.28914    -1.79226     0.16982
C     -0.69202    -0.47527     2.58790
H     -0.86243     0.32823     3.31968
H      2.42309     0.14169    -1.62675
C      1.45888    -0.17080    -2.05966
H      1.28908     0.39762    -2.98542
C      0.35360     0.08760    -1.08271
H      1.52394    -1.24013    -2.31258
H      0.10948     2.36472    -1.10891
H     -0.74143     2.22216     1.39570
H     -1.42027    -1.51651    -1.70448
C     -0.26312     1.42661    -0.68303
C     -0.13455    -0.79034     0.04758
C     -1.11871    -0.63588    -1.12737
C     -1.26325     0.68530    -1.59750
