 13
no_name:-307.189872128702
C      0.23027     1.33534     0.86862
H     -2.74054     1.39277    -1.95823
H      0.81808    -1.85318    -0.12723
C      0.80034    -0.86751     0.34028
H     -0.30816     2.28131     0.80892
C     -1.05604     0.05810    -1.01128
H      2.77899    -0.46435     1.15439
C     -0.04908     0.14701     0.01170
C     -2.06467     0.56818    -1.72717
C      1.71490    -0.41673     1.45269
C     -1.66523    -0.75386    -2.02151
H      1.61688    -1.05458     2.35095
C      1.23628     0.98116     1.67570
