 11
no_name:-268.473677408415
H      1.53989     1.23624     2.88722
C      0.96107    -0.10068     1.04856
C      0.04723    -0.08621    -0.02935
C     -1.03326     0.51581    -0.81306
H     -1.70538     1.35131    -0.95334
C      1.50347     0.43074     2.15212
C     -0.00980    -0.31510    -1.50956
C     -0.99231    -0.96381    -0.66859
H      0.63676    -0.38770    -2.37311
H     -1.56827    -1.85562    -0.46364
C      2.02466    -0.80154     1.71426
