 12
no_name:-306.546113799216
C      1.25577     0.88411    -0.23874
C      0.31264    -1.59222     0.38762
H      2.31110     0.86576    -0.50817
C      0.37483     1.88737    -0.50578
H     -1.75135    -1.90509    -0.40640
C     -1.22539    -1.48352     0.46616
C     -1.24587     1.25737    -0.11907
C     -0.77189     2.54413    -0.15739
H      0.95949    -2.43821     0.15085
C     -0.97359     0.02227     0.32295
C      0.48121    -0.22567     0.29582
H     -1.72639    -1.82063     1.38938
