  8
no_name:-154.446786281845
C     -0.18973     0.55842    -0.18751
H     -0.73120    -1.59353    -0.85295
H     -0.88084     1.33165     0.16514
C      0.48955    -0.24801     0.87910
H      1.57446    -0.37417     0.98899
C     -0.66246    -0.85756    -0.04133
H      0.37319     0.85327    -1.08692
C     -0.51433    -1.14853     1.34896
