 12
no_name:-194.345409439263
H      0.38615     1.83811     0.94124
H     -2.23642     1.43860     0.61978
H      0.53701    -1.08174     1.60978
C      0.73324    -0.45786     0.72269
H      0.81997    -1.00845    -1.42317
H     -0.53146    -1.82873    -0.58226
C      0.08143    -0.91329    -0.61412
H      1.81862    -0.31128     0.62495
C     -0.04471     0.86603     0.67618
C     -0.71476     0.39781    -0.69798
H     -0.86466     0.96373    -1.62429
C     -1.48097     0.65665     0.51762
