 11
no_name:-305.903629352419
C     -1.04434    -0.47921    -1.09225
C     -1.94212    -0.93435    -1.91814
C      1.99424     1.06920     1.70711
C      0.53908    -0.69455     0.85984
H     -3.01867    -0.85871    -1.70428
H     -1.66598    -1.41853    -2.86666
C     -0.10812    -0.00151    -0.22881
H      2.74497     1.45409     2.39598
C      1.35362     1.73974     0.63608
C      1.42418    -0.21702     1.66161
C      0.47768     1.31883    -0.18311
