 13
no_name:-381.983957134764
C      1.63691     1.33668    -0.71883
C     -1.28554    -0.03513    -1.24824
H     -1.82605    -1.33371     0.41279
C      1.05539     1.69492    -1.89050
H      1.25504    -0.81871     2.51953
H     -0.39891    -1.69258     2.38391
C     -1.09386    -0.64979    -0.02945
C      0.12714    -0.41340     0.75383
C     -0.85425     0.73831    -2.13111
C      1.19128     0.48628     0.27758
C      0.06674     1.60324    -2.69192
C      0.33950    -1.00973     1.95550
C      2.42730     1.10124     0.45338
