 17
no_name:-384.562486185957
C     -0.93296     0.27484    -0.17616
C     -1.76392     1.15819     0.59920
H      3.74519    -0.99567     0.60280
H      1.93741    -2.02542    -1.80511
H     -1.91009    -1.54861    -3.24303
H     -1.46578     2.35071     2.41272
C      2.03297    -1.41623    -0.90949
C      1.42634    -0.50558     0.02231
C     -1.30984    -0.41642    -1.33840
C      0.33442     1.12020     1.68125
C     -1.62282    -1.01901    -2.35518
C     -1.07356     1.65866     1.66644
H      0.55504     0.56494     2.61376
C      0.37068     0.21943     0.45348
H     -2.80158     1.38153     0.34635
C      2.78228    -0.98414     0.09578
H      1.08740     1.93053     1.62684
