 17
no_name:-272.379556074909
H     -2.03023     0.74046     0.50192
H     -0.54806     2.31459    -2.80429
H     -2.04834     2.34031    -1.69200
C     -0.47393     1.04059    -1.09823
H     -1.41963    -0.97015     2.40786
C      0.90416     0.40972    -1.28290
C      1.08559    -0.53856    -0.07139
H      0.33812    -0.93995     2.72697
H      1.68693     1.18387    -1.32035
H      1.95478    -0.26535     0.55494
H      0.95573    -0.13541    -2.23894
C     -1.04037     0.47233     0.12387
C     -0.20150    -0.40578     0.71392
H     -0.35675    -2.26500     1.78572
C     -0.43184    -1.17814     1.97074
H      1.25426    -1.58810    -0.37451
C     -1.05177     1.94479    -1.90687
