 19
no_name:-348.48617200178
C      0.64169    -0.57092     0.30095
C     -0.33602    -1.62708     0.15527
H      3.55874     1.05605     0.21307
C      2.50133     0.78348     0.22770
H      1.51166     2.73705     0.15449
H     -2.63313     0.42951     0.47017
C     -1.61111    -1.33608    -0.18700
H     -0.53536     0.85908    -1.74088
C      1.45642     1.64778     0.18407
H     -0.25452     1.08116     1.30080
H      2.63325    -1.48454     0.29836
C      0.17532     0.86765     0.29786
C      2.00469    -0.59165     0.29896
H     -1.31525     2.09462    -0.73142
C     -2.08867     0.07440    -0.42861
H     -2.83376     0.08321    -1.24257
H     -2.33911    -2.14511    -0.30475
H     -0.01805    -2.66702     0.27923
C     -0.94232     1.05760    -0.73457
