  7
no_name:-228.559880899984
C     -1.28754    -1.53540     2.12075
C      0.29745     0.38215    -0.36585
C      1.77558    -0.01208    -2.44690
C     -0.95076    -0.51175     1.42057
C      1.02682     0.17310    -1.39243
C     -0.47864     0.58184     0.72647
H     -0.70591     1.61906     1.02278
