 10
no_name:-230.476437524122
H      0.61492     2.35559    -0.56122
H      2.69679     0.08138     0.24331
C      0.81778     1.33522    -0.24126
C     -0.65829    -0.98669    -0.40338
C     -1.73544    -0.79496     0.51187
H     -2.74114    -1.19096     0.63736
C      1.66717     0.39889     0.09540
C      0.22738     0.04975     0.16621
H     -0.28959    -1.98198    -0.71443
C     -0.72891    -0.33578     1.31987
