 14
no_name:-308.00153847667
C     -0.33799    -1.83192     0.84000
C      0.06762    -2.24390    -0.43359
H      0.73582    -1.60791    -2.39057
C     -0.39430    -0.47470     1.15520
H      0.11016    -3.30835    -0.67738
H     -0.19653     4.11686     1.02385
C     -0.04348     0.49419     0.19311
C     -0.10203     1.88903     0.51215
H     -0.70981    -0.14835     2.14818
C      0.41849    -1.28983    -1.39432
C      0.36479     0.06946    -1.08759
C     -0.15203     3.07149     0.78307
H      0.63701     0.81783    -1.83449
H     -0.61233    -2.57452     1.59342
