 12
no_name:-194.376814129089
H      0.10219     2.01915     0.19179
H     -1.67440    -0.09829     1.72452
C     -0.01056    -0.19258     0.26496
H     -0.08879     0.60478     2.33048
H      0.99061    -0.25893    -2.28162
C      0.67831    -1.20747    -0.36428
C     -0.68653     0.30323     1.45909
H      1.69086    -1.98808    -2.11155
C      1.15047    -1.14939    -1.66740
H     -1.48397     1.31617    -0.41469
C     -0.57330     1.15286     0.17776
H      0.86014    -2.12022     0.21684
