  9
no_name:-267.205926633391
C     -1.08633    -1.29994    -1.15186
C     -0.62753    -1.99784    -2.29057
C      1.31836     1.98231     2.08405
H     -1.51253    -2.24316    -2.91837
C      0.73894     1.15105     1.28040
C      0.15844     0.32769     0.47793
C      1.88249     2.81983     2.89292
C     -0.38940    -0.50825    -0.30813
H     -2.15358    -1.34834    -0.84570
