 16
no_name:-234.295115689148
H     -1.81728    -0.08798    -0.44728
H     -1.03334     1.92520    -1.66869
H      0.64061     1.76964    -0.93613
C     -0.26462     1.25649    -1.27130
H     -1.84177    -1.01447     1.71870
C     -0.11920    -0.11328    -1.86704
C      1.46011    -0.30406     0.82541
H     -0.26876    -1.27281     2.68858
H      0.88579    -0.53738    -1.93965
H      1.83723    -0.66487     1.79275
H     -0.78523    -0.40648    -2.68341
C     -0.73143     0.04389    -0.48755
C     -0.04127    -0.41977     0.75137
H      1.95080    -0.89199     0.03097
C     -0.75243    -0.92772     1.77050
H      1.79277     0.74044     0.70069
