 11
no_name:-231.152178852917
C      0.66782    -1.04971     0.59253
H      2.36812    -0.28972     2.88687
H      1.61419    -2.88123     1.23495
C     -0.94533     0.31796    -0.99051
H     -0.70465     2.25968    -0.14463
C      1.53317    -1.80241     1.43935
C     -1.18539     1.63981    -0.90609
H     -1.87194     2.12865    -1.60166
C     -0.07196    -0.40464    -0.13340
H     -1.44843    -0.26852    -1.77000
C      2.23040    -1.27599     2.44123
