 11
no_name:-193.654289941955
H     -1.51158     0.56765     2.10682
C      0.02374    -0.67356     0.43818
H      1.19534     1.20404     0.85419
H     -0.34698    -1.56242     0.94551
H      0.22443    -1.09536    -1.73988
C      0.52358    -0.39439    -0.95221
H      1.51567     0.05746    -1.08879
C      0.19832     0.76119     1.00864
H     -1.58077     0.68183    -0.58135
C     -0.56835     0.40326    -0.29442
C     -0.55095     1.13877     2.17198
