 16
no_name:-346.620867406344
C      1.81492     0.92449    -0.39311
H     -3.12354    -0.92314     0.46082
H      2.41874    -1.52306     0.24028
C     -2.10929    -0.55411     0.28869
C     -0.60800     1.25334    -0.31235
C     -1.02996    -1.40567     0.44728
C     -1.90460     0.78503    -0.09310
H      3.91378     1.75743    -0.77013
C      0.31406    -0.96747     0.23318
H     -1.19195    -2.44524     0.74397
H     -2.75544     1.45834    -0.21905
H     -0.44147     2.29095    -0.60897
C      2.92947     1.36701    -0.59311
H      1.21205    -2.88533     0.69816
C      0.50499     0.41189    -0.15928
C      1.39065    -1.84975     0.40112
