 10
no_name:-305.282241145407
H      2.05296    -0.93121     0.61210
C     -1.36317    -1.08795     0.24598
C     -0.15169    -1.18778     0.44753
H      1.98129     1.30136    -0.42775
C     -0.22910     1.22378    -0.67583
C      1.05319     0.74263    -0.28892
C     -1.42840     0.94220    -0.69914
C      1.09356    -0.51531     0.29677
C     -2.31987    -0.14191    -0.31195
C     -3.64618    -0.24618    -0.43255
