 16
no_name:-309.169966200605
H     -3.75667    -2.24915     0.96244
C     -0.66126    -0.29758     0.33837
H     -1.13503    -0.07728    -1.76254
H      0.96857     1.31774    -2.27033
C      0.32821    -0.14765     1.25920
C     -0.54920     0.44024    -0.98878
C     -1.84014    -1.04850     0.60366
H      2.17939     0.91480     1.79423
C      1.79571     1.03616    -0.29258
C     -2.86264    -1.68278     0.78252
C      1.50952     0.65666     0.96936
H      2.70731     1.60024    -0.51150
H      0.23357    -0.62094     2.23953
C      0.90808     0.60547    -1.43216
H      1.29198    -0.35877    -1.82570
H     -1.01676     1.43614    -0.85758
