 13
no_name:-194.946009641343
H     -2.57020    -1.58487     0.24201
C      1.15296     0.13025     0.28602
C     -0.15460     0.04077    -0.08092
H      1.21948     2.25251     0.69319
C      1.86830     1.36463     0.70594
H      2.73675     1.54417     0.04672
C     -0.68398    -1.24373    -0.44544
H     -2.61473    -0.24324    -0.94074
H     -2.45064    -1.98139    -1.45849
H      1.71832    -0.80966     0.26584
C     -2.13810    -1.22472    -0.71931
H      2.28484     1.23857     1.72159
H     -0.76168     0.97008    -0.08365
