 16
no_name:-234.333326773307
H     -2.07731     0.50049     0.22824
H     -1.00426     1.13968    -2.12003
H     -0.24330     2.19153    -0.92227
C     -0.39194     1.12984    -1.20191
H     -1.46731    -1.22986     2.09988
C      0.95711     0.39431    -1.39530
C      1.21520    -0.33445    -0.05691
H      0.22682    -0.99167     2.61228
H      1.77759     1.06760    -1.68680
H      1.88702     0.24295     0.60847
H      0.84944    -0.35235    -2.19889
C     -1.03194     0.36849    -0.06595
C     -0.16329    -0.43455     0.56840
H     -0.18525    -2.34990     1.55737
C     -0.41996    -1.29106     1.76767
H      1.69317    -1.32072    -0.19083
