  9
no_name:-229.906519207724
C      1.92880     0.30264    -0.70777
C      0.59061     0.22884    -0.23492
C     -1.85583     0.16859     0.61838
H      3.78468    -0.86600    -1.18627
H     -4.01963     0.10543     1.37390
C      2.75650    -0.72610    -0.85130
C     -0.56432     0.20702     0.16694
C     -3.00635     0.13593     1.01978
H      2.29312     1.31328    -0.97318
