 13
no_name:-232.390401996074
H      1.26525     1.20111     2.90841
C      0.91344    -0.93229     0.48859
H      0.67534    -1.76343     1.16989
H     -1.91577     1.33878    -1.58121
C     -0.49082     0.54955    -0.22268
H     -0.81152    -1.56720    -0.81909
C     -1.35734     1.47295    -0.65035
H     -1.52950     2.38854    -0.07784
C     -0.02202    -0.80162    -0.75431
C      0.39471     0.44588     0.96960
H      0.50118    -0.75771    -1.72278
H      1.99095    -0.95098     0.26431
C      0.64531     1.20589     2.01327
