 12
no_name:-381.358731714526
C     -1.13289    -0.48445    -0.24415
C     -2.62349     1.58816    -0.24009
H      4.49012    -2.30167     0.38377
C     -3.68739     2.16534    -0.33332
C      2.48797    -1.20800     0.20615
H     -4.62613     2.68142    -0.41474
C      3.55166    -1.78539     0.30033
C     -1.38210     0.90926    -0.13149
C      1.24655    -0.52909     0.09776
C      0.99743     0.86464     0.21041
C     -0.03730    -1.08476    -0.14865
C     -0.09821     1.46484     0.11478
