 18
no_name:-347.863713503762
C      1.75638    -1.14115    -0.75444
C      0.42312    -0.72082    -0.48977
C      2.59894    -0.27797    -0.06375
H      2.05208    -1.95923    -1.41034
C      0.47928     0.43705     0.42880
C      1.79604     0.70023     0.67557
H      3.69003    -0.30977    -0.06901
H     -0.67188     2.05626     1.27905
H      2.19673     1.48081     1.32346
H     -0.86734    -2.10541    -1.56916
H     -2.92308     1.02037     0.48437
H     -2.92299    -0.82705    -1.13997
C     -1.96963    -0.46958    -0.73841
C     -1.95817     0.85286    -0.02148
C     -0.82527    -1.18689    -0.97561
H     -1.05889     0.44763     1.89856
C     -0.79257     1.00358     0.97829
H     -1.88430     1.64969    -0.78947
