  9
no_name:-229.834665954133
H      1.19985    -1.18230     2.87562
H     -1.52923    -0.41674    -1.82231
C     -0.48527    -0.33153    -1.50058
C      0.33582    -0.22950     0.97990
C     -0.27222     0.34429    -0.15933
C      0.78884    -0.73987     1.98680
C      0.10078     1.04453    -1.55891
C     -0.28362     1.78934    -0.51994
H      0.14005    -1.19157    -1.77498
