 15
no_name:-345.863630894717
C      0.70447    -1.24211    -0.14751
H     -1.83658     0.18290    -1.75074
H      2.20631     3.07266    -1.68565
H     -1.62002    -0.88055     2.30363
C     -0.92048    -0.79278     1.47219
H      0.37455    -2.53052     1.69697
C      0.98064     1.30129    -0.91932
C      1.63126     2.24223    -1.32009
C      0.23708     0.19744    -0.40974
H      1.74290    -1.53012    -0.33794
C     -1.05524     0.22582     0.39788
C      0.08721    -1.62548     1.15993
H     -1.54416     1.18732     0.57339
C     -1.19289    -0.32918    -1.02835
C     -0.18584    -1.24968    -1.40711
