 17
no_name:-347.101590218883
H      1.90156    -0.84372     1.42499
H     -3.65345    -0.89798     0.42473
C     -2.68135    -0.43661     0.24037
H      2.23165     1.58946    -2.04338
C     -0.09177     0.85229    -0.31545
C      1.42530     0.94552    -0.12633
H     -1.34615    -2.08570     0.77031
H      3.35970     0.61876    -1.06423
C      2.30239     0.73160    -1.35515
C     -1.42300    -1.00574     0.99287
C     -2.36792     0.58082    -0.55344
H      1.99763    -0.17468    -1.90242
C     -0.14578    -0.29810     0.62835
C     -1.26764     1.19699    -0.84741
H     -1.60989    -0.93179     2.08024
C      1.19941    -0.25846     0.82629
H      1.72553     1.86833     0.40396
