 12
no_name:-306.529004091498
C      1.90342    -0.75469    -2.77561
H      1.92836    -1.54586    -3.52385
C      1.18585    -0.39981    -1.63209
H     -1.41606     1.80383     1.77658
H     -0.26472     0.89198     2.77731
C     -1.25559     0.84687     2.29813
H     -2.02677     0.72249     3.07203
C     -1.31115    -0.27570     1.33868
C     -0.65808    -0.72871     0.17768
C      2.33538     0.39364    -2.22451
C      0.25943    -0.57771    -0.73541
C     -1.79865    -1.42894     0.84605
