 17
no_name:-347.278927260554
C      0.08804     0.77121     0.07053
C     -0.82660     1.72337    -0.29822
C     -1.79659    -0.30568    -0.86647
C      1.55150    -1.65907     0.60825
H      1.53588    -2.28527     1.52505
C     -0.48738    -0.55265    -0.27344
C      0.19492    -1.69152    -0.02286
C     -1.98793     1.04965    -0.87661
C      1.39272     0.83742     0.67863
H      3.07691    -0.24772     1.39630
C      2.08659    -0.29561     0.93474
H     -2.48071    -1.07266    -1.22822
H     -2.87166     1.56536    -1.25660
H     -0.71886     2.80299    -0.18563
H     -0.22892    -2.66926    -0.27621
H      1.81471     1.81481     0.93029
H      2.26666    -2.19481    -0.05083
