 18
no_name:-310.420856260503
C      0.62951     0.02703    -0.18816
C     -0.57247    -0.51317    -0.79067
H      3.90459     0.71795     0.02892
C      2.83141     0.62667     0.20689
H      2.57689     1.62936     2.13740
H     -3.80210    -0.23923    -1.10022
C     -1.81622    -0.45039    -0.27473
H      0.06332     1.66199     1.13822
C      2.15787     1.09354     1.28482
H      0.33350     0.12673     1.96799
H      2.16757    -0.49784    -1.65029
C      0.69810     0.75653     1.13541
C      1.89362    -0.03059    -0.70199
H     -2.81121    -1.50351    -1.87889
C     -3.04233    -1.02065    -0.91649
H     -3.52561    -1.77164    -0.26520
H     -1.96199     0.05255     0.68969
H     -0.43133    -1.01666    -1.75559
