 10
no_name:-267.940535092468
C     -0.52253    -0.30501     1.16947
H     -0.87771    -0.39279     2.20141
C      0.98601     0.76205    -1.26714
C      1.01523    -1.34177    -0.50355
C      0.28589    -1.20157     0.54204
C     -0.91663     0.86891     0.34780
H     -1.85890     1.38717     0.55345
C      1.58575    -0.48538    -1.44612
C     -0.03856     1.20518    -0.63541
H      2.35227    -0.74171    -2.18125
