 11
no_name:-231.136921371349
C     -0.66665    -0.97883    -0.18863
H      0.92683    -1.75495    -1.56836
H     -1.05258     0.72434    -1.81186
H      0.75439     2.72185     2.66082
C      0.34001     1.14772     1.03275
C     -0.10861    -1.39224    -1.51883
C      0.56103     1.98920     1.90081
C      0.17501     0.18603     0.06758
H     -0.80226    -1.89874    -2.20034
H     -1.63926    -1.23106     0.23848
C     -0.35189     0.07054    -1.28885
