 13
no_name:-307.250482921722
C      0.34204    -0.79922    -1.05659
H      3.03364    -2.21120    -2.20405
C     -0.93496     0.50086     0.78433
C      1.01862    -1.47253    -2.01278
H     -3.36700     2.95516     4.25268
C     -2.83217     2.41609     3.49347
C     -2.22281     1.80304     2.62571
C     -0.27244    -0.16619    -0.16336
C     -1.54954     1.12387     1.66657
C      2.47025    -1.26915    -2.33116
H      2.92457    -0.50128    -1.68936
H      0.46945    -2.22136    -2.59945
H      2.60006    -0.96651    -3.38597
