 13
no_name:-232.417911620898
H      0.08966     2.95521     0.04415
H     -1.27101    -1.71632    -1.50340
C     -0.38478    -1.31626     0.38946
H      1.66508     2.35484    -0.56381
H     -0.15346    -1.71929     1.38230
H      1.10307     0.99302     1.96870
H     -1.32169    -3.11123    -0.26464
C      0.71247     0.99793     0.94953
H     -0.45026     0.88906    -1.95929
C      0.04457     0.05632     0.14838
C     -1.02436    -2.08691    -0.50340
C      0.68104     2.04465    -0.16582
C     -0.04019     0.94665    -0.95014
