 12
no_name:-306.649986056993
H     -0.22844     1.88020     1.09455
C     -0.30780     0.80169     0.96246
C      0.16379     0.08288    -0.17882
C     -0.86677    -0.10986     1.83854
C     -0.72426    -1.51592     1.17145
C     -0.09243    -1.31603    -0.04160
H      1.83100     1.64469    -3.10809
C     -1.29393    -1.27746     2.37744
H      0.17306    -2.07230    -0.77954
C      0.80456     0.68179    -1.30357
C      1.35024     1.19194    -2.26095
H     -1.78613    -1.73654     3.24060
