 16
no_name:-346.515991772108
H      1.59399     2.88204     0.32355
C     -1.64991    -1.60782    -0.93784
C     -0.80148    -0.66267    -0.29693
H     -0.05462     1.55499     2.13144
H     -3.04389    -3.12113    -1.94053
C      0.44461    -0.26507    -0.70433
C     -2.39286    -2.40959    -1.46890
C      0.95638     0.72597     0.26093
C     -0.12220     0.88716     1.27292
H      3.21837     0.14476     0.39355
H     -2.08834    -0.05722     1.47338
C     -1.14587     0.06680     0.93964
H      0.98624    -0.61890    -1.58086
C      2.40561     0.84594     0.59120
C      1.84570     1.93761    -0.17528
H      2.08262     2.04389    -1.24228
