 11
no_name:-268.577811234398
C      1.43249    -0.02167    -0.70141
C     -0.72505    -1.66874    -0.13837
H      2.37844    -0.36652    -0.25610
C      0.12756    -0.56763    -0.17395
C     -1.45013    -2.64608    -0.12385
H      1.50742     0.25851    -1.76343
H     -2.09731    -3.50299    -0.10303
C      0.09345     1.84724     0.84743
H     -0.40170     3.79771     1.94247
C     -0.16275     2.88661     1.42638
C      0.41605     0.67158     0.17333
