 19
no_name:-348.478833038934
C     -0.46946     0.47309     0.94875
C     -0.26421     1.77854     0.63648
H     -2.04279    -0.22703     2.27983
H     -1.76268    -2.40828     1.37080
H     -0.14812    -2.49309     2.06527
C     -0.98573    -0.42721     2.03596
H     -0.42289    -0.31265     2.97771
H      1.33396     1.03438    -3.15319
C      1.02755     0.15525    -2.56629
H      0.28531    -0.40470    -3.16263
C      0.47641     0.56016    -1.23578
H      1.90913    -0.50165    -2.45995
H      0.59674     2.74289    -1.24010
H     -0.47928     2.65797     1.24500
H      0.04058    -2.48689    -0.59949
C      0.32279     1.82113    -0.72080
C     -0.02050    -0.34187    -0.19536
C     -0.80442    -1.86149     1.43895
C     -0.20282    -1.65421     0.06679
