 15
no_name:-345.8476365225
C      0.64419     0.73919    -0.97865
H     -3.67162     0.16430    -2.83285
H      2.58728     0.12384    -0.21039
C      1.50457     0.18413    -0.08341
H      0.90135     1.26986    -1.89526
C     -1.89296     0.43758    -1.42239
H      2.37595    -1.30660     2.12309
C     -0.78801     0.60229    -0.52954
C     -2.83624     0.29200    -2.17047
C      0.78942    -0.37204     1.06930
C      1.30438    -1.09738     2.07460
H     -1.43661    -0.20925     1.50323
C     -0.59955     0.13673     0.89079
H      0.67476    -1.48757     2.87738
C     -0.62550     1.63244     0.55187
