 11
no_name:-305.967629207931
C      0.96754    -1.11340    -0.49812
H      1.75026    -2.22633    -2.53010
C     -0.53798     0.90059     0.21090
C      1.82738    -2.24610    -0.20864
H     -3.37582     4.67572     1.55541
C     -2.04440     2.90482     0.92084
C     -1.26901     1.87215     0.55018
H      2.31620    -2.87131     0.53743
C      1.59263    -1.97858    -1.48119
C      0.21477    -0.10347    -0.14761
C     -2.75857     3.85021     1.25696
