 19
no_name:-385.727242168235
C      0.04212    -1.27205    -1.69876
C      0.20815    -0.95558    -0.43052
C     -0.94015     0.55648     1.38757
H      0.84009    -2.77145    -3.03073
H     -2.31784     0.10893    -0.30362
C     -2.00110     0.89808     0.38279
H      0.17996    -3.42274    -1.50167
C      0.03807    -2.65968    -2.28047
H     -0.91385    -2.86296    -2.80092
H     -2.78907     1.58519     0.70416
H      1.77338     2.37150     2.48091
C      1.49132     0.65943     1.13540
C     -0.31252     1.94181     1.61669
C      0.24391     0.18628     0.44914
C      1.14465     1.74324     1.85191
H     -0.89777     2.74297     2.07323
H      2.46453     0.18344     1.03022
C     -0.62682     1.47804     0.17814
H     -0.10192    -0.43986    -2.41342
