 15
no_name:-271.104750590275
C      1.42306     0.41598     0.93127
H     -2.53203    -0.71517    -2.97248
H     -2.32848     0.11684    -0.53800
C      1.87332     1.22000     2.01137
H      0.45439    -1.06848    -1.11005
C     -1.58074    -0.50394    -1.04940
H      2.63891     2.50189     3.74748
C     -0.30665    -0.45462    -0.61102
H     -1.25953    -1.92558    -2.64521
C     -2.07183    -1.34092    -2.18666
C      0.14026     0.36796     0.49330
H     -0.61225     0.98499     0.99726
C      2.28271     1.89926     2.93362
H      2.17953    -0.20057     0.42907
H     -2.85715    -2.04386    -1.85490
