 11
no_name:-268.542577758394
C     -0.23384    -0.87998    -1.25855
C     -1.14155    -2.46404    -3.09395
H      2.34771     0.81298    -0.54411
C     -0.67992    -1.67111    -2.18481
C      0.90927     1.16929     1.16607
H     -1.31507     1.06353     0.87946
C      0.19908    -0.08443    -0.31155
H     -0.62901    -0.35680     1.75491
C     -0.41987     0.43583     1.01827
H      1.29764     1.83271     1.93976
C      1.40959     0.69416     0.00013
