 12
no_name:-231.724542698906
C     -0.31202     0.47291     0.21163
C     -1.72121     0.18770     0.48432
H     -3.92086    -0.24457     0.92008
C      0.48702    -0.70100    -0.31116
H      2.50171    -0.19382     0.27800
C     -2.88662    -0.03878     0.71724
H      2.07958     0.26424    -1.40477
H     -0.23504     1.29803    -0.52120
C      1.96150    -0.51121    -0.62956
H      0.17642     0.84135     1.13334
H      2.42520    -1.43855    -0.99835
C      0.05417    -1.91798    -0.53524
