 13
no_name:-232.430185957236
H     -1.31833     0.83230     1.49636
H     -0.46219     1.53283    -0.67146
C     -0.64064     0.44538    -0.53834
H      2.40248    -1.16318    -1.16438
C      0.44864    -0.29850    -1.27748
H      0.88552     0.38472     2.60730
H      0.31631    -0.51613    -2.34252
H     -1.62391     0.24301    -0.99209
C     -0.67476     0.11437     0.96354
C      0.73391     0.11081     1.55804
C      1.59432    -0.64006    -0.64538
H     -1.12689    -0.88599     1.11818
C      1.71033    -0.28401     0.74936
