 10
no_name:-193.16209161345
C     -0.17936     0.98766    -0.13999
C      0.05896    -0.23464    -0.19401
H     -0.11264     2.91793     0.77320
H     -0.05900    -2.12654    -1.15886
C      0.30552    -1.60765    -0.26207
H      1.33836    -1.86163     1.60045
H      1.11129    -3.40702     0.56595
H     -0.96597     2.82538    -0.89311
C     -0.43289     2.31671    -0.08360
C      0.95649    -2.33280     0.69117
