 11
no_name:-231.079928825805
C     -0.36380     1.51233     0.74767
C      0.36218    -0.96169    -0.38892
C     -0.52891    -2.03901    -1.08092
H     -0.51935     1.21831     1.79965
H     -1.16099    -2.19395    -1.95303
H     -1.36648     1.66787     0.31412
H      2.34392     0.29484    -1.13921
C      0.33779     0.43403     0.02433
H      0.19037     2.46249     0.71738
C      0.07985    -2.37590     0.02179
C      1.38763     0.02821    -0.68770
