 16
no_name:-346.631206199521
H      0.50455    -1.56684     1.16830
H     -2.74434     0.30500     0.51520
C     -1.88017    -0.31027     0.78804
H      0.70318     2.14452    -2.15621
C      0.55352    -0.75477     0.43957
C      1.75151    -0.44847    -0.19489
H     -2.43146    -2.98381     3.27225
H      2.75937     0.82982    -1.62777
C      1.81484     0.59380    -1.13172
C     -2.07957    -1.31995     1.72466
C     -0.62665    -0.01954     0.15280
H      2.65013    -1.02534     0.03861
C     -0.54273     1.03192    -0.79658
C      0.65990     1.33103    -1.42746
H     -1.44216     1.60869    -1.02868
C     -2.26594    -2.20713     2.54981
