  7
no_name:-191.18683403692
H      0.23705    -0.42089     2.25333
H     -0.50130     0.13815    -2.24625
C      0.50474    -0.07997     1.25448
C      1.28591     0.49902     0.34918
C     -0.13122    -0.14085     0.00334
C     -0.76870    -0.20263    -1.24727
C     -1.54950    -0.78145    -0.34182
