 11
no_name:-268.570309781653
C     -1.69785    -0.65694    -0.13504
C      0.64624    -0.53042    -1.41517
H      2.34961    -1.45782    -2.25206
H      1.85410     0.17886    -2.99622
C     -0.69435     0.59846     1.95261
C     -0.46083     1.15400     3.00926
H     -0.26946     1.64075     3.94771
C      1.65427    -0.60735    -2.25548
C     -0.91028    -0.02661     0.72616
C     -0.34090    -0.44710    -0.57475
H     -2.68687    -1.05567    -0.35515
