 13
no_name:-269.861835791843
H      1.39548     1.91716     2.19706
C     -0.12792    -1.15751    -0.88999
C      0.42685    -2.07968    -1.73536
C     -1.21168     0.62253     0.73520
H      1.41057     1.23076     0.54486
C     -0.61334    -0.32503    -0.13429
H     -2.28697     0.50459     0.91424
H      1.35328    -3.62860    -3.14983
C     -0.55559     1.63631     1.34224
C      0.91999    -2.90233    -2.48843
C      0.90021     1.94187     1.21022
H     -1.14410     2.29569     1.99053
H      1.05020     2.96198     0.81428
