 12
no_name:-381.325112424549
C      2.59128     0.54168    -1.15776
C     -0.85606    -1.25084    -0.19366
C      3.62272     0.74988    -0.31295
C     -3.11127    -0.27412     0.76990
C     -3.96883     0.47175     1.20065
C      4.61294     0.95739     0.47804
C      0.33941    -0.64964    -0.50950
C     -2.12818    -1.12871     0.27476
C      1.39636    -0.09389    -0.80377
H     -4.72913     1.12934     1.58313
H      2.65743     0.87637    -2.20726
C     -1.68917    -2.41657    -0.10637
