 12
no_name:-381.260358344229
H     -0.54176     2.23709     1.60903
H     -2.14801    -1.88536    -4.40459
C     -0.08095    -0.09492    -0.35833
C      0.52607     0.40065     0.80023
C      0.24661     1.48204     1.64417
C      1.74550    -0.02757     1.63215
C     -1.17601    -1.04396    -2.50512
C     -0.59833    -0.54715    -1.37254
C     -1.69310    -1.49446    -3.51277
C      1.40608     1.20478     2.57060
C      1.21136    -0.19259     2.98995
C      2.58120     1.17854     1.68465
