  7
no_name:-228.499978523764
C     -0.43869    -0.44986     1.63684
C      0.16251     0.42014     0.66807
C     -0.41700    -0.61562    -0.67981
C      0.35468     0.61245    -0.62359
H      0.83053     1.30835    -1.30571
C     -0.85965    -1.22662     0.37878
C     -0.57272    -0.54738     2.94972
