 11
no_name:-156.327774725581
H     -1.95175    -0.23418     1.00100
H     -1.49539     0.85658    -0.33582
C      1.22408     0.18185    -0.31955
H      2.78124     0.93974    -1.53903
C      1.94634     0.23864    -1.41733
C     -1.12623     0.35614     0.57313
H      0.39962    -1.06728     1.17210
C      0.07697    -0.54364     0.25337
H     -0.85151     1.13768     1.29875
H     -0.22854    -1.34108    -0.45847
H      1.74219    -0.42829    -2.27381
