 10
no_name:-267.90170855902
H      0.29062    -0.46806     1.96687
H      2.42987    -1.22410     0.50587
C      0.45647    -0.34337     0.89757
C     -0.52500     0.30642    -0.01798
C      1.52750    -0.72070     0.16017
C      0.05366     0.28987    -1.38727
C      1.24323    -0.31567    -1.23657
C     -1.71941     0.81292     0.33641
C     -2.86320     1.29423     0.68145
H     -0.43707     0.69564    -2.26878
