 16
no_name:-383.867007692457
C     -0.73412    -1.74076    -0.56917
H     -2.36493    -3.61462    -0.61531
H      2.51314     5.68740    -0.10028
H      1.68972    -2.20947     1.81402
C      0.80919    -0.25230     0.97155
H     -1.21333    -1.13181     1.48376
C      1.90113     3.51230     0.29392
C      2.22566     4.66937     0.08396
C      1.53603     2.21740     0.52944
H      0.14004    -1.86924    -1.23176
C      1.22367     1.05123     0.74711
C     -0.35099    -1.23493     0.80227
H     -2.67699    -0.61603    -1.62897
C     -2.07129    -1.39825    -1.17707
C     -1.94291    -2.62294    -0.76260
C      1.00461    -1.48272     1.38210
