 12
no_name:-231.777669025029
C     -1.38091    -0.89754     0.99393
H     -1.95849    -0.16572     1.58645
H      0.19323     1.52252     1.37576
C     -0.06130    -0.70387    -1.20016
C     -0.50248    -0.16867     0.03052
H     -2.07738    -1.57614     0.47918
H      2.12521     1.83978    -0.58844
C      1.34323     1.09140    -0.47870
C      1.22101    -0.17083    -1.16138
H     -0.41238    -1.63611    -1.64140
C      0.32685     0.98223     0.43523
H     -0.79288    -1.49329     1.71540
