 18
no_name:-310.425439907849
C      0.55660     0.95078    -0.76257
C     -0.62743     0.64544     1.51001
H      1.09803    -1.82909     1.05601
H     -2.07709    -0.93645     1.53385
H     -0.23378    -0.40224    -2.24739
H      0.92603     1.76690    -1.38863
C     -0.53490     0.03023    -1.27825
H     -0.97909     1.18165     2.39538
C     -1.20965    -0.47615     1.05418
C     -0.58215    -1.07310    -0.18132
H     -1.09339    -1.98672    -0.51409
H      1.02270     2.06552     1.12060
H      2.54874     0.30093     0.14505
C      0.93142    -1.29416     0.10720
C      0.54361     1.15386     0.75601
H      1.39818    -1.87560    -0.70584
H     -1.50977     0.52724    -1.40803
C      1.47101     0.12471     0.10165
