 10
no_name:-230.489590227812
H     -0.63165     2.63189    -0.32844
H      1.02258     0.16190     2.34235
H      0.60624    -0.91795    -1.62885
C      0.37860    -1.24840     0.71265
H      0.15679    -2.25706     1.06422
C      0.22005    -0.55500    -0.67228
C     -0.34969     1.59216    -0.47812
C     -0.96744     0.39730    -0.67516
C      0.66350     0.68667     0.01086
C      0.78160    -0.11117     1.31363
