 14
no_name:-233.067729889787
C     -0.01281    -1.06470     0.37936
H      3.02501     1.94207    -0.15662
H     -2.05410     0.97319     0.47495
C     -1.51410     0.28486    -0.19751
H     -1.86502    -1.93188    -0.51063
C      1.00823     1.26404    -0.20189
H     -1.85829     0.46034    -1.23113
H      0.63317     2.23317    -0.55275
H      0.77446    -1.76322     0.67747
H      2.74792     0.17174     0.36425
C      2.32622     1.11886     0.01270
H     -2.05932    -1.41990     1.19194
C     -1.51400    -1.21628     0.25360
C     -0.00369     0.23375    -0.00915
