 17
no_name:-309.800324336865
H      0.23210     0.35640     2.81838
C      0.36696    -0.15305     1.86191
C     -0.12316     0.29499     0.60784
H     -2.00116     0.97761    -1.86923
H     -1.91960     1.50969     0.45275
H     -0.06173    -0.75709    -2.58711
C     -0.96025     1.07210    -1.50870
H     -0.50383     1.86595    -2.12850
C     -0.20329    -0.23765    -1.63744
H      1.53433    -1.92305     2.47707
H     -0.42475     2.40873     0.19086
C      1.04868    -1.34384     1.69054
C     -0.90783     1.43104     0.01687
C      1.03350    -1.75498     0.22857
C      0.24968    -0.63147    -0.40823
H      2.05279    -1.84546    -0.19042
H      0.55293    -2.73932     0.07760
