 10
no_name:-305.29328968158
H     -0.03731     1.60090    -3.05281
C      0.33026     1.31992    -0.76889
C      0.76638    -0.75987     0.81400
H     -1.51438    -3.33934     2.13180
C     -0.02880     1.79006    -1.97920
C     -0.84968    -2.58774     1.74572
C     -0.10089    -1.73492     1.31202
C      0.90144     0.35277     0.04767
C     -0.34246     2.60365    -0.89561
C      2.05451    -0.20347     0.70764
