 15
no_name:-345.895404972864
C      2.78296     0.47861     1.13028
H     -0.09583    -0.36286     2.64346
H     -4.86954    -0.42548    -2.29957
H      1.36019    -1.20438     3.28098
C      1.69818     0.58835     0.20807
C      0.81287    -0.92413     2.36987
C     -2.69011     0.09761    -1.81078
C     -3.85034    -0.18093    -2.07009
C     -0.22535     0.68572    -1.25070
C     -1.39069     0.40921    -1.51869
C      1.11485     1.00461    -0.93993
H      3.81396     0.71169     1.39072
H      0.47127    -1.83578     1.85185
H      1.69413     1.60496    -1.64909
C      1.63555    -0.11661     1.45277
