 14
no_name:-382.55771602926
C     -1.26758     1.59882     3.21610
H     -0.80285    -1.40739    -3.22343
H      2.07220    -1.99694    -2.91484
H      2.09581    -0.76660    -0.22663
C     -1.33021     2.13782     4.32041
H     -1.39227     2.61165     5.28197
C      1.32600    -1.02024    -0.95091
C     -1.20014     1.01269     2.01112
C     -1.08750     0.44944     0.88728
C      1.28856    -1.70376    -2.21634
C      0.82523    -0.02514    -2.11966
C     -0.08622    -1.33758    -2.40880
C     -0.14274    -0.78237    -1.03612
C     -1.13153    -0.10131    -0.31208
