 13
no_name:-269.857091294439
C      0.78690    -1.27751    -0.60754
C      0.47775    -0.19125    -0.15317
C      0.15544     1.08214     0.38150
H      2.22458    -2.62950    -1.38737
H     -1.94937     0.93437     0.18493
C     -1.10911     1.55885     0.50952
H      0.92544    -3.38671    -0.43239
C      1.14872    -2.57954    -1.15097
H      0.58904    -2.79528    -2.07673
H     -1.97771     4.88428     1.90360
H      0.99090     1.71270     0.70850
C     -1.42260     2.83565     1.04489
C     -1.72467     3.92323     1.49717
