  7
no_name:-228.571708898045
C     -0.08195     0.22825     0.96765
C      0.19975    -0.53868    -1.50584
C     -0.02824     0.09028     2.32056
C      0.06703    -0.17468    -0.35307
H      0.31829    -0.86406    -2.52422
C     -0.50666     1.36639     1.72274
C     -0.97265     2.60795     1.63191
