 10
no_name:-305.30925008395
H      1.52140     0.62763    -2.12586
C      0.55630    -1.05456     0.66850
C      1.02336    -0.75513    -0.47845
H     -0.10145    -0.48709     2.69400
C      0.77859     0.11290    -1.51221
C     -0.60575     0.41065    -1.51793
C     -1.13127     0.49998     1.00951
C     -1.46002     0.55948    -0.25945
C     -0.23634    -0.39108     1.61217
C     -1.95007     0.35572    -1.57703
