 14
no_name:-307.858544354701
C      0.06457     0.44485     1.32349
C      0.91095     0.28366    -1.04249
C     -1.05181    -0.92817    -0.37271
H      1.01126     1.62847     2.80953
C     -1.76069    -1.75152    -1.30310
H     -0.71612     0.09829     2.01083
H     -1.85142    -2.14981    -2.31142
H      2.45982     0.88505    -2.61651
C     -0.04379    -0.08394    -0.04205
C      1.73669     0.59960    -1.87686
H      1.80218     1.65172     1.11374
C      1.00922     1.28601     1.77207
C     -2.22997    -1.68528    -0.06286
H     -2.98118    -1.99487     0.66097
