 11
no_name:-305.924924789289
H     -2.84349     2.53657    -0.80381
C     -1.95488     0.67305     0.08772
H      3.74211    -4.01347     0.72788
C     -2.04587     2.15208    -0.15438
C     -0.58466     0.46978    -0.07144
C      1.21514    -1.41013     0.24533
C      2.99989    -3.25027     0.58379
H     -1.89975     2.76931     0.74258
C     -0.77510     1.65497    -0.78071
C      2.15913    -2.38243     0.42540
C      0.36596    -0.54782     0.07011
