 13
no_name:-307.192467337956
C      0.66150     0.54349    -0.14907
H      1.67146    -2.67803    -3.35136
C      0.88802     1.29000     1.14037
C      1.15772    -1.58362    -1.39042
H     -4.00282     1.39122     1.39418
C     -2.94261     1.31693     1.23913
C     -1.73909     1.24037     1.07911
C      1.43499    -2.16468    -2.43875
C      0.85409    -0.91518    -0.22066
C     -0.37074     1.12776     0.84025
H      0.73751    -1.48962     0.70582
H      1.64256     1.64038     1.84151
H      0.80968     1.07090    -1.10280
