 13
no_name:-269.861182477699
C     -0.27501    -1.10131     0.07112
H      2.39735    -1.96632    -0.93984
H     -0.19212    -1.70569     0.98971
H      3.00952    -0.20839    -1.13480
H     -3.98327     1.66052     1.51646
C     -1.97749     0.86803     0.74440
H      0.78476     1.90337    -0.26662
C      1.03171    -0.43544    -0.40315
C     -3.04643     1.27958     1.15516
C      2.20644    -0.89361    -0.84889
C     -0.75484     0.34430     0.27766
C      0.42787     0.87740    -0.15320
H     -0.82094    -1.67296    -0.69771
