  9
no_name:-304.617171664853
C     -0.01709    -0.51912     0.33538
C     -1.34060    -2.76475     0.75843
H      1.67826     3.47220    -1.91161
C     -0.47839    -1.65539     0.97249
C      0.88020     1.59737    -0.85640
C      1.30240     2.59366    -1.41889
C      0.40652     0.48408    -0.23087
C     -1.87946    -2.67476     2.10443
C     -0.49471    -2.26531     2.25675
