  9
no_name:-229.832411638137
H     -0.18645     2.71120    -0.12882
C     -0.09126    -1.91257    -0.63491
C     -1.25641    -2.18182    -1.16232
C      0.44291    -0.54639     0.04271
C      0.06102     0.66589     0.31736
C     -0.32991     1.89059     0.58690
H     -0.81464     2.14427     1.53916
C      1.16714    -1.70428    -0.08245
H      2.10378    -2.21792     0.11990
