 12
no_name:-306.647298009392
C     -0.26594    -1.95109     1.00913
C      0.08838    -2.19751    -0.34087
H      0.65635    -1.55287    -2.27011
C     -0.56972    -1.75996     2.17050
H      0.11374    -3.24354    -0.66519
H      0.46446     4.96690    -0.17787
C      0.43998     2.70598    -0.56097
C      0.45201     3.90851    -0.35880
H     -0.83911    -1.58449     3.19518
C      0.39668    -1.23621    -1.25356
C      0.42339     1.35822    -0.78966
C      0.40909     0.15066    -0.99400
