 15
no_name:-345.91162786112
H      2.58066     1.61845    -0.00439
C     -0.02683     1.16441    -0.32028
C      0.57519    -1.21572     0.27477
C     -0.74564    -1.45273     0.18227
C     -1.36147     0.88776    -0.45112
H      3.07081    -0.11160     0.50150
C      0.99206     0.18482     0.09191
C     -1.74856    -0.41649    -0.00897
H     -2.07859     1.65128    -0.76116
H      1.33037    -1.99371     0.41132
H      0.33181     2.17820    -0.52301
C      2.28469     0.58778     0.20632
C     -2.80384    -1.33711     0.16145
C     -1.88500    -2.40169    -0.11740
H     -3.89218    -1.26743     0.19595
