 12
no_name:-306.604406398581
H     -1.59442    -0.39574    -2.03646
H      2.29635    -0.88067    -0.02968
H      0.85763    -1.56296    -2.14848
C      0.52741    -0.92145    -1.32989
C     -0.79984    -0.23236    -1.30753
H      0.96807     0.88847     2.63750
C      1.27464    -0.56939    -0.24385
C      0.28615     0.90821     1.78680
C     -0.81319     0.58426    -0.22553
C     -1.12692     1.33222     1.76940
C     -1.63699     1.50018     0.61635
C      0.44906     0.36142     0.53229
