 10
no_name:-193.084593662811
C      0.61939     0.37277     0.59527
H     -1.42403    -1.04526    -1.48468
H     -1.37687    -0.67382     1.17803
C      1.60631     0.82058     1.31583
H     -0.90550     1.48393    -0.74773
C     -0.47351    -0.81382    -0.98904
H      2.11858     0.60520     2.24987
C     -0.30476     0.60242    -0.51979
H      0.39181    -1.35906    -1.38876
C     -0.55275    -0.52213     0.47990
