 10
no_name:-305.199487357755
C     -0.07332     1.30224     0.28227
C      0.04584     0.05587     0.11075
C      0.47229     2.64627     0.34195
H      1.46767     3.05899     0.19416
C      0.22723    -1.27988    -0.04294
C     -0.81965     2.62679     0.58311
C     -0.49964    -2.47423    -0.02093
H     -1.05172    -3.01445     0.75269
C      0.05777    -2.79995    -1.31230
C      1.20305    -2.21921    -0.66128
