 10
no_name:-267.836350837433
C      0.05210     0.09181     0.00684
C      0.43667     1.30796    -0.60690
H      0.97805     3.29876    -1.59213
C     -0.38044    -1.76616     0.84455
H     -0.45977    -2.77975     1.22634
C      0.71773     2.36457    -1.12985
H     -0.96062    -1.47572    -1.41300
C     -0.62782    -1.12644    -0.43525
C      0.27649    -0.55313     1.30426
C      0.93260    -1.26865     0.05872
