 11
no_name:-231.109700843746
C      0.85315    -0.85485     0.50641
H     -0.93348     0.05562    -1.81883
C     -0.85281     0.17472    -0.72817
H     -1.77245     2.13934     0.45353
H     -0.66910    -2.02994    -0.56599
H      2.24787     0.81039     0.82210
C      1.32083     0.40532     0.41562
H     -1.20209    -1.27487     0.95646
C     -0.56806    -1.13162     0.05975
C      0.19810     1.13204    -0.17106
C     -1.06016     1.49703    -0.06422
