 13
no_name:-307.199016481569
H     -1.14960     3.14742     0.19149
H     -2.33156    -1.20073    -0.01438
H      1.76812     1.95754     0.18409
C     -0.38339    -0.36677     0.04992
H     -0.89461    -2.40800    -0.04543
C      1.11602    -0.26026     0.07712
C      2.13977    -1.15888     0.05345
C     -0.42566     1.13959     0.11493
C     -1.25265    -1.37580    -0.00623
C      3.08226    -2.02735     0.03352
C      1.02060     1.16381     0.13772
H     -2.45542     1.80662     0.11358
C     -1.39889     2.08441     0.14150
