 13
no_name:-344.527420658949
C     -1.06318     2.04690     3.05444
H     -1.13416    -1.43615    -2.38975
H      1.74268    -0.06798    -2.99216
H      1.55701    -2.78656    -1.18061
C     -1.66121     2.64764     3.94451
H     -2.18226     3.17204     4.72262
C      1.10415    -1.87171    -1.54060
C      0.16675     0.76660     1.15130
C      0.92715     0.15027     0.24757
C      1.18679    -0.69887    -2.31072
C      0.59502    -0.55579    -0.88805
C     -0.18461    -1.19679    -1.92499
C     -0.40631     1.38970     2.08035
