 14
no_name:-382.602548907798
H      0.32599     0.76222     1.91352
C     -0.70440     0.49454     1.63414
C     -0.52943     1.54627    -0.70619
C     -0.94200    -0.83105     0.89529
C      1.05433    -1.99337    -0.24917
C      0.48726     1.56292    -1.57126
C      1.33565    -0.84225    -1.04935
C      1.15371     0.30158    -1.47419
C     -0.01149    -1.70833     0.50277
H      0.76554     2.37933    -2.24096
C     -1.21935     0.91138     0.24797
H     -1.41254     0.68560     2.45178
H      1.61323    -2.93136    -0.26643
C     -1.92025    -0.34112    -0.09455
