 13
no_name:-344.547998678926
C      0.81006     0.82043    -1.32241
H      1.29605    -2.16115    -0.11798
H      1.98833     2.71298    -1.83435
H     -2.26539    -0.22454    -1.14128
C     -0.67044     0.22892     2.71942
H     -0.72448     0.64847     3.70674
C      0.08416    -0.36712    -1.04658
C     -0.54971    -0.81079     0.31949
C     -0.61665    -0.25355     1.60754
C      1.43495     1.82367    -1.59459
C     -1.34382    -0.79105    -1.00234
C      0.37533    -1.72589    -0.50829
C     -1.04708    -2.17462    -0.52956
