 15
no_name:-308.470824475228
H     -2.48329     0.45691     1.04368
C      0.67196     0.06242    -0.03594
H      1.76631    -1.83727    -0.67267
H     -1.77531    -0.65468    -1.84776
C      1.61510    -0.76996    -0.89459
H     -0.70399     2.16404     2.14422
H      2.53308    -0.22553    -1.14280
C     -0.71584    -0.44739     0.08020
H      1.69315     1.77543     1.05295
C     -1.40368     0.42646     0.89000
C      0.77963     1.22586     0.82865
C     -0.45728     1.39535     1.40870
H     -0.82196    -2.13162    -1.43816
C     -0.89468    -1.03823    -1.31321
C      0.40520    -0.29482    -1.56344
