 12
no_name:-231.790511047497
H     -2.51343     0.97136    -0.40016
C      0.59638    -0.23749    -0.32658
H      1.29607    -1.16860    -2.08389
H     -1.07956    -1.53565     0.48127
C      1.52318    -0.52709    -1.22746
H     -0.62258     2.55439     1.03611
H      2.53831    -0.12905    -1.13992
C     -0.75152    -0.52607     0.21791
H      0.80749     0.04405     1.91454
C     -1.60826     0.73573     0.16571
C      0.28080     0.33815     1.00222
C     -0.71646     1.48241     0.84341
