 15
no_name:-308.502519084177
H     -0.28550    -2.76905    -0.04940
C      0.93390    -0.22074     1.54619
C      0.23649     0.07964     0.37028
H     -1.90305     0.74327    -1.48264
H     -0.16181     3.39654    -0.78006
H     -1.23138    -2.43363    -1.63299
C     -0.82205     0.53525    -1.41563
H     -0.37879     0.60150    -2.42330
C     -0.44879    -0.72558    -0.61987
H      2.06882    -0.71372     3.47878
H      0.75989     2.92926     0.78429
C      1.53474    -0.48478     2.57572
C     -0.07459     1.31379    -0.32139
C     -0.66874    -2.04983    -0.77831
C      0.18792     2.62031    -0.09482
