 17
no_name:-347.161791365327
C     -1.05573     0.76412    -0.32315
C     -0.95736    -1.82630    -0.06520
H      1.15716    -0.11843     1.64332
H     -2.04449    -3.83923    -0.06286
H     -2.08985     0.60690    -0.63571
H      1.30509     2.88112     0.82797
H     -1.32100     2.60505     1.00863
C     -1.53606    -2.89387    -0.07054
C      0.06468     0.35576    -1.22634
H      1.79015    -1.11693     0.27873
C      1.26273     0.93041    -0.40370
C     -0.26956    -0.57332    -0.06590
C     -0.63758     1.97994     0.43162
H      2.24197     1.05036    -0.88298
H     -0.00366     0.16930    -2.30072
C      1.10048    -0.30844     0.55887
C      0.69407     2.12732     0.32712
