  9
no_name:-229.820266122765
C     -0.42169    -0.11717    -0.85574
C     -0.20794    -0.75942    -2.17582
C     -0.03493     0.30228     0.25309
H      0.86909     1.69101     1.67239
C      0.37780     0.71568     1.54000
H      0.67649    -1.17792    -2.64765
C      0.13166    -0.07055     2.59328
C     -1.44974    -0.39628    -2.02661
H     -0.34027    -1.04640     2.73284
