 13
no_name:-269.776909054717
H      3.51658     0.53624     0.34141
H     -2.04667    -0.81082     0.80306
C      0.03713    -0.17547     0.27040
C     -0.24376    -0.76459    -1.09053
H     -0.80224    -1.71055    -1.13639
H     -0.87957     1.47840    -1.08475
H      0.54055    -0.65880    -1.84777
C     -1.39519     0.06758     0.69302
C      1.21561     0.42979     0.79513
H     -1.55548     0.86084     1.43027
C      2.53271     0.67802     0.79107
C     -0.96011     0.47445    -0.66940
C      1.77344     1.27065     1.81528
