 15
no_name:-308.43687924482
C      0.28766     1.17698     0.20306
C     -2.05239     0.79945     0.19027
H     -2.77360    -1.24560     0.06579
C      0.50174    -0.20854     0.11720
H      2.60175    -0.16449     0.64568
C     -1.91509    -0.56922     0.10427
H      2.24652     0.18026    -1.89044
H     -1.17526     2.78395     0.32036
C      1.90818    -0.77512     0.02049
H      1.14536     1.85631     0.24232
H      1.95739    -1.78989     0.45408
C     -0.60270    -1.07237     0.06605
C     -1.01243     1.70517     0.24477
H     -0.44096    -2.15252    -0.00150
C      2.54819    -0.71994    -1.31366
