 16
no_name:-309.121673825388
H      1.14716     2.60414    -0.25477
C     -1.16273    -1.78974     1.54935
C     -1.74862    -2.93272     2.02191
H      1.19200     1.29316    -3.06472
H     -2.73239    -4.84699     2.81295
C      0.76587     0.50639    -0.42498
C     -2.27260    -3.95084     2.44136
C      1.38683     1.76974    -0.93515
C     -0.63590    -0.76920     1.12507
H     -0.26452     1.34142     1.22200
H      2.48749     1.65677    -0.91802
H     -0.13967     2.27846    -2.41668
C      0.94801     2.11102    -2.36678
C     -0.04158     0.42834     0.65367
H      0.97646    -0.41138    -0.98799
H      1.45233     3.02167    -2.72695
