 16
no_name:-346.438139831997
H     -0.60604     2.10838     0.60714
C     -0.37627     1.03685     0.56968
H      0.18743    -4.52629     2.38687
H     -1.16054     1.82256    -1.96006
C      0.10031     0.46699    -0.68042
C     -0.51542    -0.90928     2.39495
H     -0.60569     0.28266    -2.80157
C     -0.42081     1.01895    -2.01462
C     -0.25560    -2.27683     2.39114
H      0.31456    -0.60510    -0.65201
C     -0.56161     0.28681     1.74215
C     -0.01747    -3.47178     2.38393
H      1.79635     0.78297    -2.11362
H      1.22883     2.32007    -1.27513
C      0.97957     1.31041    -1.61338
C     -0.93779     0.24806     3.11977
