  9
no_name:-267.195755535541
C      0.07450    -0.30140     2.10411
H      0.54865     1.07524    -2.84139
C      0.34702     0.32308     0.57446
C      0.07526     0.06792    -0.79490
H     -0.39845    -1.11841     2.65931
C      0.16905     0.38013    -2.09213
C     -0.54347    -0.78594    -1.77450
C     -0.40982     0.96305     1.63211
C      1.36213    -0.16044     1.48920
