  9
no_name:-155.066703969067
H      0.00631     0.84749     2.07741
H     -1.41079     0.07012    -0.61859
C      0.55470    -0.92992    -0.11464
H      0.83723    -1.94826     0.14515
H      1.55429     0.92280    -1.05742
C      0.84543     0.23394    -0.60216
C     -0.53561     0.13094     0.04764
H     -1.79794     1.10093     1.60920
C     -0.80017     0.74177     1.34623
