 12
no_name:-306.54746825941
C     -0.01257    -0.94440     1.52518
C      0.22844    -0.49156     0.15914
C      0.83164    -0.82365    -1.00060
H      0.72110     1.32011    -4.02148
H     -1.68507     1.58605     2.24577
C      0.78296     0.00471    -2.14781
H     -1.39413     2.20118     0.49094
C      0.03452    -1.71123     2.57202
C     -1.24505     1.43742     1.25850
C     -0.53283     0.34951     0.96848
H      1.37999    -1.76927    -1.05840
C      0.75177     0.70343    -3.14255
