 13
no_name:-382.062786068994
C      1.48125     0.84963    -0.22277
H      1.36562     0.45598    -3.62890
C     -1.03823    -0.75639    -1.51376
C      1.24577     0.84110     1.14641
C     -0.93709    -0.33491     2.27888
C     -1.05194    -0.53078     0.93241
C     -1.46379    -0.89186    -0.31081
H     -1.36635    -0.49260     3.27029
C      0.08495     0.19421     1.52399
C     -0.31629    -0.43061    -2.54421
C      0.87950     0.26200    -2.66819
H      1.91584     1.30405     1.87561
C      1.39873     0.68405    -1.45191
