  8
no_name:-266.58764808215
C     -0.95127     0.54808    -0.40682
C     -1.71083     1.40464    -1.05930
C      0.57043    -1.17437     0.89479
C     -2.49673     2.22786    -1.68542
C      3.20105    -1.03165     0.74498
C     -0.23734    -0.27487     0.21453
C      1.92005    -1.10005     0.81576
H      0.06738    -1.94864     1.49871
