  9
no_name:-229.890718291694
C      0.05915    -0.22741    -0.06714
H      2.15127     0.13891     0.21051
C      1.14052     0.49918     0.44383
C     -1.91257    -1.58199    -1.02234
H      1.86294     2.15599     1.58470
C     -2.90196    -2.25562    -1.50169
C     -0.89453    -0.88373    -0.53028
H     -0.00121     2.00097     1.45546
C      0.99112     1.61651     1.20524
