 17
no_name:-309.733562556835
C      0.51300     0.01857     0.06169
C     -0.76983    -0.43108    -0.35866
H      3.52065     0.80157    -0.44533
C      2.86351     0.28522     0.28868
H      2.68542     1.92343     1.89407
H     -4.00064    -0.62588    -0.61955
C     -1.88441    -0.79404    -0.68452
H      0.17913     2.04393     0.81532
C      2.17194     1.23155     1.22450
H      0.19665     0.81313     2.07428
H      1.83867    -1.19262    -1.14281
C      0.68416     1.10319     1.11985
C      1.71145    -0.41849    -0.38352
H     -3.34229    -1.16936    -2.18233
C     -3.21246    -1.23815    -1.08881
H     -3.38928    -2.28824    -0.79938
H      3.53854    -0.42788     0.81122
