 10
no_name:-342.692936174796
C      0.36360    -0.45950    -1.18272
C      0.82927    -1.15174    -2.22608
C     -0.07289     0.18431    -0.19143
C     -1.42696     2.18024     2.85235
C      1.46849    -2.25942    -2.74703
H      1.94445    -3.19934    -2.46693
C     -1.88390     2.84219     3.86291
C     -0.97139     1.51001     1.82619
C     -0.52806     0.85762     0.83297
C      1.05963    -1.33682    -3.66401
