  9
no_name:-267.199567358283
C     -0.87751    -0.41484    -0.30134
H     -1.50138    -1.29798    -0.44028
C     -0.61745     0.42662     0.90333
H      0.61598    -0.18996    -1.96823
C      0.14137     0.11832    -1.03648
C      1.46166     0.76014     1.04717
C      0.27434     0.13706     1.90388
C      0.58968     1.05794     0.03201
C      1.49827     0.51713     2.39798
