 12
no_name:-306.558709471007
C      0.90029     0.57554     2.14921
H     -1.46715    -1.51296    -3.27182
C     -0.56550    -0.45114    -1.24700
H      1.58116     2.25238     3.55541
C     -1.12794    -0.76414    -2.55874
H     -1.01201     1.54716    -2.60013
C      1.25865     1.47478     2.88892
C     -0.93861     0.50993    -2.27912
C     -0.09297    -0.77456    -0.06155
C      0.47789    -0.41335     1.26540
C      0.28537    -1.69632     0.97756
H      0.37030    -2.72542     1.32462
