 16
no_name:-384.032992452238
C      0.04208    -0.64148     1.74779
H     -2.81023     3.44815    -1.57710
H      2.31911    -1.94215    -2.15728
C     -1.62043     1.83171    -0.47379
H      2.22876    -2.61343     0.41654
C      0.65459    -0.94927     0.56830
C     -2.25096     2.68694    -1.06660
C      1.64572    -1.83415    -0.07338
C     -0.91160     0.46642     1.50517
C     -0.87265     0.82426     0.17811
H      0.19947    -1.10729     2.72259
H     -1.54455     0.92363     2.26491
C      0.12811    -0.06776    -0.46281
C      1.69086    -1.48991    -1.38956
C      0.73030    -0.37029    -1.64275
H      0.56461     0.09928    -2.61409
