 15
no_name:-271.150935815354
H     -1.00484     1.48951    -1.19511
C      1.70304    -0.00619    -1.28417
H     -0.66146    -2.42414     1.52925
C     -0.17088    -0.07288     0.06972
H     -2.22229    -1.77832     2.31725
H     -1.99470     0.33773     1.15797
C      0.90023    -0.80272    -0.36100
C     -1.37905    -1.60606     1.64409
C      1.13938     1.21765    -1.43450
C     -1.23746    -0.43871     0.99160
H     -0.05074     2.09897     0.15907
C     -0.09968     1.28583    -0.59080
H      2.61466    -0.35936    -1.77025
H      1.50427     2.03395    -2.05874
H      1.13365    -1.82810    -0.06878
