 10
no_name:-267.936446505615
H      2.59475     3.22220     1.93873
C     -1.05446    -1.21356    -0.50120
C     -0.27208    -0.26586     0.02102
C      1.24912     1.58331     1.03963
H     -2.67803    -2.88572     0.23112
C      1.96742     2.45868     1.52072
C     -1.59084    -1.97637    -1.60993
H     -1.61068    -2.16345    -2.68213
C      0.46191     0.62468     0.51181
C     -2.03392    -2.27632    -0.40034
