 14
no_name:-382.676380743449
H      4.75633     0.52120     0.78778
C      2.53785    -0.02876     0.67524
C      0.28509     0.33665    -0.12600
C     -2.75478     1.47109    -1.67916
C      0.71532    -1.52806     1.35605
C      0.36009    -2.49998     1.99154
H      0.04080    -3.35887     2.55173
C      3.71563     0.26096     0.73581
H     -4.99925     1.07474    -1.90695
C     -3.94722     1.26417    -1.80306
C     -0.52285     1.01146    -0.81535
H     -0.97426     2.60625    -2.10486
C      1.15416    -0.38669     0.61432
C     -1.37046     1.74066    -1.55574
