 12
no_name:-381.461931195814
C      0.83405    -1.78698    -2.18759
C      1.58923    -0.77087    -1.62498
C      1.73107     0.16842    -0.80783
C      1.31057     0.96579     0.17634
C      0.47095     1.37225     1.01301
C     -0.77793     1.29377     1.60829
C     -1.25545    -1.45881    -0.75647
C     -1.67445    -0.66049     0.22753
H     -1.12165     1.94714     2.41447
H      1.17752    -2.43981    -2.99429
C     -1.53398     0.27825     1.04557
C     -0.41497    -1.86461    -1.59262
