 16
no_name:-346.552252062894
C      0.91261    -0.53980     0.99313
H      0.88917    -2.03736     2.54613
H     -4.63613     0.97860    -3.31912
H      2.47223    -1.81675     1.75080
C      1.58494     0.52152     0.20886
C      1.56741    -1.29219     2.10540
C     -2.73021     0.64833    -2.03897
C     -3.75564     0.82253    -2.72465
C      0.73056     1.01088    -0.72420
C     -1.64783     0.46079    -1.31195
C     -0.54881     0.27823    -0.58268
H      1.89561    -0.60795     2.90778
H      0.90854     1.79391    -1.45935
H      2.61440     0.84496     0.37414
C     -0.35688    -0.68211     0.52010
H     -1.12195    -1.37321     0.87094
