 12
no_name:-306.604450001527
C     -0.22514    -0.73946    -0.76858
H     -1.92358    -1.47066    -3.50168
C     -0.99285    -0.67380    -1.78173
H      1.48402     2.84926     3.55194
C     -1.79052    -0.61067    -2.83646
H     -2.33720     0.30639    -3.08140
C      0.56304    -0.79060     0.28162
C      1.31065     0.95802     2.27054
C      1.39808     1.96535     2.94688
C      1.17532    -0.16813     1.46247
C      1.47525    -1.43519     1.17221
H      2.03501    -2.32963     1.44283
