  7
no_name:-191.142889041981
H      0.29802     1.12854     1.20899
C     -1.24679     0.27893    -0.24962
C     -0.08374    -0.25248    -0.89309
H      0.34870     0.00844    -1.86719
C     -0.10844     0.29775     0.61862
C      0.67093    -0.88612     0.20661
C      1.40557    -1.90212     0.58313
