 11
no_name:-231.122882157516
C      0.07951     0.56356    -0.39857
H      0.89504     1.04433    -0.97454
C      0.63165     0.23060     0.93269
C     -0.32982    -0.64566    -1.13365
H     -2.06706     1.18884    -0.09029
H     -0.99587    -2.50322    -2.28314
H     -0.81625     2.60335    -0.06227
H      1.44342    -0.23135     3.01765
C     -0.68534    -1.62786    -1.74437
C      1.05956    -0.01145     2.03924
C     -1.05217     1.55493    -0.25699
