  8
no_name:-229.200846900492
H      1.09901     0.78702     2.19082
C     -0.06363    -0.20167    -0.55462
C     -0.56551    -0.08527     0.80272
C     -0.16093    -0.96921    -1.63897
C      0.61790     0.55461     1.24070
C     -0.25499    -1.71418    -2.67747
C      0.69591     1.00806    -0.07998
H     -1.60347     0.04338     1.14065
