 13
no_name:-195.042409035061
C      0.44059    -1.68398    -0.87825
H      0.95143    -2.46026    -1.45474
H     -0.61697    -1.52165    -1.09869
C      0.55859     0.06312     0.93916
C     -0.39208     0.97587     0.65404
H      2.13463    -1.27195     0.27788
H     -0.64346     1.68860     1.44883
H      1.03198     0.13350     1.92590
C      1.08984    -0.99916     0.07871
H     -1.33787     2.21954    -0.82640
H     -2.11123     0.64188    -0.61697
C     -1.13107     1.15357    -0.63803
H     -0.56940     0.74596    -1.49257
