  7
no_name:-191.232324616086
C      0.09043    -0.01685    -0.13282
C     -0.81469    -0.98232    -0.64834
H     -1.69026    -1.61637    -0.50932
C      0.52742     0.79150     0.84198
C      0.94775     1.55453     1.76878
H      0.68177    -0.61267    -2.40571
C      0.17659    -0.56291    -1.44117
