 17
no_name:-347.284343708565
C     -0.02938     0.82512    -0.00900
C     -0.90367     1.80527    -0.38542
C     -1.85138    -0.31340    -0.88992
C      1.35639    -1.57675     0.56208
H      1.93379    -2.47312     0.80366
C     -0.62175    -0.49860    -0.32377
C      0.12616    -1.69319    -0.01234
C     -2.12405     1.15952    -0.97192
C      1.27867     0.88104     0.59880
H      2.92798    -0.25375     1.32941
C      1.93666    -0.28120     0.86924
H     -2.53692    -1.08949    -1.23161
H     -3.04395     1.43975    -0.41991
H     -0.76007     2.88169    -0.28656
H     -0.30000    -2.67389    -0.23951
H      1.72572     1.85040     0.83420
H     -2.30374     1.48838    -2.01543
