 19
no_name:-348.384653740989
C     -0.51563    -0.21009     1.12277
C     -0.31476     1.10983     0.84009
H     -1.86238    -1.35190     2.35255
H     -0.15972    -1.50251     2.80260
H      0.28489    -2.00365     0.12346
C     -0.91822    -0.78460     2.44089
H     -1.05054    -0.00741     3.20804
H      2.39317     0.44699    -1.70548
C      1.52571    -0.17785    -1.95775
H     -0.26860     0.09690    -3.37371
C      0.29351    -0.15794    -1.09238
H      1.76613    -1.15590    -2.39563
H     -0.06151     2.84301    -2.15222
H     -0.47111     1.92054     1.55488
H     -1.32719    -1.50313    -0.42418
C      0.02448     1.82104    -1.77962
C     -0.33871    -1.12123    -0.10419
C      0.03739     1.22889    -0.55838
C      0.25047     0.46456    -2.48439
