 11
no_name:-193.710693316914
H     -0.42098     1.31064     0.86609
H      0.61819     1.80048    -1.29992
C     -1.53480    -0.52610     0.94334
H      0.81677    -1.18525    -0.52122
C      0.54073    -0.12816    -0.41447
H      0.38160    -0.01811     1.72486
H      1.45182     0.42621    -2.24814
H     -1.53378    -1.63521     0.96365
C     -0.22299     0.22901     0.83329
C      0.88723     0.74080    -1.36611
C     -2.77139    -0.12414     1.01502
