  9
no_name:-155.093925099754
C     -0.25879    -0.10019     1.41141
H     -0.64639     0.84055     1.80954
H      0.85837     1.20491    -1.46089
C      0.04395    -0.23278     0.08648
H     -0.85902     0.64033    -1.79696
H     -0.11879    -0.93580     2.10310
C      0.08513     0.44400    -1.26156
H      0.87280    -1.89276    -1.37258
C      0.48897    -0.96072    -0.96610
