 12
no_name:-306.599314679902
C      0.42413     0.07908     0.65023
H     -1.69637    -0.67089    -1.89828
C     -0.83044     2.19795    -0.05194
C     -1.11754    -0.18037    -1.11309
C      0.64446    -1.96091     0.24635
C      1.23252    -1.13425     1.14862
H      1.98625    -1.27890     1.92418
H     -1.06412     3.26156     0.02678
C     -1.24776     1.18728    -0.82502
C      0.05601     1.37181     0.65588
H      0.73626    -3.02043     0.01179
C     -0.18597    -0.79201    -0.29013
