  9
no_name:-229.841313309966
C      0.70713    -0.31503     0.16296
H     -1.75211     2.50512    -0.10463
H      1.60462    -0.11160    -0.45454
C     -0.24627     0.79633     0.06500
H      1.10424    -0.39587     1.19451
C      0.18759    -1.62337    -0.21865
C     -0.62275    -2.51239    -0.61190
C     -1.04429     1.70109    -0.02208
C     -1.40215    -3.50258    -1.02290
