 11
no_name:-231.14540971676
C     -0.10688    -0.40736     0.77141
H     -1.60888    -1.57263    -0.72199
H      2.22918    -0.91726     0.41529
H      1.92349     1.83192    -0.33270
H     -0.36608    -0.68252     1.80507
C     -1.26863     0.65824    -0.65632
H     -1.81118     1.19463    -1.43853
C      1.24339     1.08697     0.08735
C      1.38108    -0.22590     0.42975
C     -1.15740    -0.65937    -0.32255
C     -0.21679     1.05596     0.29928
