 12
no_name:-231.753227018317
H     -0.27602     2.59043     1.49285
H      1.29283    -1.09507    -2.28100
C      0.81562    -1.81073    -0.14134
H      0.51398    -2.72929     0.35525
C      1.13054    -1.14951    -1.20768
H     -1.73171     1.24705    -0.91472
C     -0.42399     1.69918     0.88877
H      2.08185    -0.05761     0.53543
C     -1.41439     0.89573     0.08252
H     -2.19019     0.29934     0.59340
C      0.04109     0.61063     0.34572
C      1.12110    -0.33946     0.07641
