 14
no_name:-195.63046299384
H     -1.62625    -0.84561    -1.37102
H     -0.62990     0.50811    -1.90590
C      0.47313    -0.90780    -0.64090
C      1.13728     0.02629     0.38583
H     -2.11983     1.13917     0.33605
C     -1.16952     0.62116     0.18704
H      0.16366     1.60141     1.61874
H      1.12346    -1.14199    -1.49809
H     -0.29290    -0.04794     2.04865
H      0.21249    -1.86505    -0.15672
H      1.87963    -0.48395     1.01932
C     -0.82060    -0.16415    -1.04099
C     -0.05061     0.60797     1.18383
H      1.66161     0.84301    -0.14036
