  8
no_name:-229.258144270531
C     -0.66466     0.01980     1.33130
C      0.48681     1.08326    -0.47582
C      0.07258    -1.09980    -0.64985
C      0.66335    -0.01984    -1.33109
H      1.15084    -0.03438    -2.30693
C     -0.07414     1.10027     0.65043
C     -0.48854    -1.08373     0.47633
H     -1.15217     0.03435     2.30715
