 13
no_name:-269.825833184812
C     -1.03975     1.07002     0.97273
C     -0.72154    -0.17664     0.77707
C      0.04331    -1.22263     0.09594
C     -1.34499     2.33514     1.16226
H     -0.81384     2.95870     1.89492
H     -2.14979     2.83048     0.60134
H      1.29849    -2.55422    -1.06326
C      1.03718    -1.50320    -0.89932
C     -0.82206    -1.60021     1.02671
H      1.36440     0.52525    -1.43760
H      2.38617    -0.74343    -2.36242
C      1.62938    -0.52255    -1.60573
H     -1.29367    -2.39899     1.59624
