 14
no_name:-307.849052661492
C     -1.56465    -1.22650    -0.02491
H      4.14276     2.06650    -3.55704
C      0.43823     0.14425    -1.01590
H     -1.59810    -0.74799     3.10472
H     -0.07053    -1.25089     2.32925
H     -2.09358    -2.12186    -0.34508
C     -0.81891    -0.44440     2.38445
H     -2.15827     0.65632     1.02110
C     -1.42198    -0.16603     1.01998
C      2.40712     1.16278    -2.36055
C      1.36976     0.62960    -1.64924
C      3.33017     1.64362    -2.99671
H     -0.32558     0.45463     2.79062
C     -0.61154    -0.35626    -0.26056
