 14
no_name:-307.809085402063
H     -0.17084     1.70878     1.88115
H      1.08411    -0.78349    -2.55248
C      1.96781    -2.94149     0.07794
H      1.90461    -3.20822     1.13392
C      1.63967    -2.13093    -0.93611
H     -2.59459     1.32018    -0.10331
C     -1.83586     0.92362     0.58033
H     -2.22387     0.26860     1.36820
C     -0.51055     0.58592     0.00542
H     -0.54070     2.76076     0.40961
C     -0.61980     1.77640     0.88407
C      0.21214    -0.18179    -0.73163
C      0.96198    -0.98239    -1.48021
C      2.48787    -3.25363    -1.19623
