 14
no_name:-382.614414856717
C     -1.16357     1.71483     2.54722
H     -1.05294    -0.98078    -2.43732
H      1.35780     0.91467    -2.82864
H      2.50431    -2.75109    -0.38853
C     -1.54669     2.11682     3.63267
H     -1.88351     2.47035     4.58961
C      0.57080    -2.09301    -1.54472
C     -0.73746     1.26295     1.33115
C     -0.34463     0.87691     0.23628
C      0.70135     0.41048    -2.12486
C      0.06468     0.38172    -0.99038
C     -0.09885    -0.84988    -1.90688
C      1.57308    -2.75301    -0.95691
C      0.56769    -3.51951    -1.58830
