 19
no_name:-385.75601695278
C      0.44671     0.21318    -1.55979
C      0.62488    -1.25380    -1.40975
H      1.59351     2.10667    -1.20375
H     -2.88438     2.49281     2.09580
H     -0.78750     1.81738    -0.56077
C     -0.13201     0.96843    -0.34975
C     -0.49973     0.17453     0.82222
C     -1.46091     0.64352     1.74553
H     -0.55812    -1.79053     1.65260
H      0.68865    -2.95892    -0.16654
C      0.12275    -1.17459     1.04169
C     -2.35710     1.54351     2.20299
H      2.09319     0.68679    -0.13678
C      0.50555    -1.88211    -0.23249
H      1.02646    -1.05717     1.68081
H      0.12114     0.56354    -2.54405
H      0.88688    -1.81881    -2.30939
C      1.32555     1.13930    -0.77027
C     -2.17705     0.37370     2.96551
