 14
no_name:-382.596424884825
H     -2.38671     3.92471     1.04225
C     -1.68811     1.74354     1.00065
C      0.76963    -0.11938    -1.71262
C      1.03519    -2.31330    -0.38074
C     -2.05573     2.90274     1.02051
C     -0.45886    -0.55210     0.50302
H      1.67525    -4.50608    -0.31347
C     -1.26317     0.41362     0.98367
H      2.51299     0.67297    -0.41840
H      0.33220    -0.02938    -2.70251
C      1.63690     0.15992    -0.80390
C      0.62245    -0.92057    -0.41479
C     -1.39494    -0.91801     1.49641
C      1.37758    -3.47485    -0.34721
