 16
no_name:-346.554464067627
C      0.47849     1.60031    -0.30166
H      0.49787    -0.27596    -2.50647
H     -0.72997    -2.74233     0.87991
H      1.17926     3.37933    -1.80567
C     -0.41889    -1.87976     0.28986
C      0.22732    -0.58868    -1.49794
H     -0.70937    -0.85552     2.89049
C     -0.22877    -0.55737     0.82102
C      0.19042     0.27888    -0.33949
C     -0.14115    -1.87258    -1.09292
C      0.87803     2.83233    -0.91438
H     -0.20491    -2.74275    -1.74858
H     -0.22415     0.88552     2.42122
H      0.56473     3.42005     1.31265
C     -0.39613    -0.14947     2.11776
C      0.62130     2.84906     0.38828
