 13
no_name:-307.162348238626
C      0.38999    -0.30905    -0.85916
C     -1.64533     0.08503     0.80336
H      2.18696     0.11503     0.64419
H      2.51495    -0.62970    -2.44711
H      0.26336    -1.19612    -1.50415
H     -4.48234     0.57619     3.06779
C      1.81222     0.03704    -0.37706
C     -2.70788     0.26892     1.64965
H      3.35855     0.85992    -1.74146
C      2.47731     0.21017    -1.73529
C     -0.70520    -0.08157     0.04319
C     -3.65011     0.43135     2.40499
C      1.18557     0.85650    -1.37925
