  9
no_name:-267.18110185564
C      0.03417    -0.25478     0.41796
C      0.06797    -0.56824    -1.06827
H      2.35150     2.26829     1.89246
C      0.93185     0.72956     0.97804
C     -1.48329     0.13891     0.17911
H      0.05669    -1.21031     0.96561
C     -1.55709    -0.38969    -0.98613
C     -0.74742    -0.95899    -2.02896
C      1.68582     1.54095     1.46470
