 10
no_name:-193.078904905267
C      0.69151    -1.52600    -0.86166
H     -0.89731     0.05239    -1.17485
H      0.91427     0.15948     1.37753
H      2.12950    -0.02716    -1.86532
H     -1.87461     1.59351     0.98471
C      0.00352    -0.20525    -0.59559
C      0.02318     0.40329     0.77721
H      0.64496    -2.60101    -0.70350
C     -0.91383     1.17579     1.28936
C      1.29476    -0.47947    -1.33480
