 10
no_name:-342.60402720642
C      0.78469    -1.17487     2.51042
C      0.47390    -0.35343     0.02105
C     -1.29715     1.56868    -2.90667
H      0.60034    -1.24957     3.57498
C     -0.70896     0.91989    -1.92094
C     -1.87234     2.20406    -3.86960
C     -0.14957     0.30023    -0.98250
C      0.29751    -0.55969     1.41415
C      1.74390    -1.58637     1.52646
C      1.58506    -1.24832     0.29859
