 14
no_name:-270.44725328755
C      1.46820    -0.90058    -0.80411
H      1.04639     1.44330     2.27985
C     -2.34728     1.75831     1.39790
C      1.80254    -1.73287    -1.82307
H     -3.15876     1.49507     0.71627
H      2.82111    -2.10898    -1.94269
C     -1.10167     1.27606     1.21213
H     -0.64271    -0.64199    -1.27490
H     -2.56906     2.42327     2.23591
C      0.15898    -0.36878    -0.58152
H      2.24425    -0.60342    -0.08808
H      1.05847    -2.05394    -2.55883
C     -0.14312     0.47418     0.47054
C      0.25030     1.16978     1.58981
