 13
no_name:-269.857561635718
H     -1.19862    -0.37943     1.57426
C     -0.66755    -0.84336     0.73326
C     -0.80544    -2.24913     0.59037
H     -1.04474    -4.51859     0.40338
C      0.90407     2.16343    -0.71559
H     -0.34013     1.83434     0.92199
H      1.16542     3.40484    -2.38838
C      0.06779    -0.05970    -0.09263
C     -0.93052    -3.45511     0.49594
C      1.60755     2.93578    -1.50040
C      0.19359     1.37891     0.07659
H      0.59974    -0.51489    -0.93366
H      2.66600     3.14458    -1.30042
