  8
no_name:-191.840661686825
C      1.42685     2.61236     1.03099
H      0.26553    -2.33073    -0.35087
C      0.85743     1.80918     0.21245
H     -1.24817    -1.84871     0.65025
C     -0.19420    -0.29412    -0.26809
C     -0.40427    -1.54389     0.01860
C      0.04045     0.99456    -0.57312
H     -0.43171     1.40895    -1.47737
