  7
no_name:-153.702531658104
C      0.80063     1.37393     1.20108
H     -1.08193     0.44953    -0.66102
C      0.28176     0.12952     1.01555
H      0.56606    -0.15805    -1.13116
C     -0.25501    -0.22599    -0.40534
H     -0.63349    -1.26341    -0.39243
C      0.05044    -1.01552     1.71558
