 14
no_name:-307.884038427568
C     -0.38374     2.80167     1.47109
C      0.94369    -1.26467    -1.35450
H     -0.56260     4.85145     2.48357
C     -0.27429     1.57945     0.86719
C     -0.70548    -1.95556    -0.24321
C     -0.47485     3.89218     2.00934
H      0.77352    -3.48038    -0.90900
C     -0.19188     0.47820     0.33625
H      0.88851    -0.75013    -2.32713
H     -1.56304    -2.29554     0.34275
C      0.17489    -2.62783    -1.27354
H      1.99370    -1.29680    -1.02252
C     -0.05050    -0.76813    -0.30333
H     -0.32964    -2.93404    -2.20623
