 10
no_name:-230.502076930391
C      0.42580    -0.18070     0.31640
C     -0.40765    -2.14169    -2.54759
H      0.71389     2.74022     1.90467
C     -0.41151    -1.26740    -1.67262
C      0.20294     1.78330     2.06266
H     -0.41837     1.67315     2.95907
C      0.31015     0.81745     1.20028
H     -0.48195    -2.85631    -3.34605
C     -0.51264    -0.25425    -0.76255
H      1.24795    -0.90373     0.46765
