 12
no_name:-231.772040186378
H      2.44334    -0.53350     0.71678
H     -1.07127    -0.96884     1.16539
C      0.34688     0.64547     0.44973
C     -1.08640     0.04688     0.72638
H     -1.75275     0.68302     1.33388
C      1.37611    -0.18119    -1.23100
C      1.62498    -0.13730     0.10765
C      0.02048     0.38563    -1.00494
H     -1.93336    -0.64359    -1.40598
H      0.50840     1.67675     0.79669
C     -1.25275    -0.04400    -0.79372
H      1.89311    -0.62635    -2.08472
