 16
no_name:-346.559381374826
C      0.92409    -0.52437     0.37658
C     -2.16352     1.45071    -0.50904
C     -0.26505    -0.01139    -0.09706
H      5.15510    -2.27602     2.10625
H     -0.11921     2.15399    -0.00400
H     -3.07940    -0.11498    -1.91823
C      1.99762    -0.96055     0.81417
C     -2.25049     0.14747    -1.25786
C      3.17103    -1.45013     1.29370
H     -0.99630    -1.64140    -1.42206
C     -0.82628     1.35420     0.27373
H     -2.18207     2.31471    -1.19794
C     -1.16831    -0.64885    -1.00242
C      4.22738    -1.88989     1.72875
H     -0.97024     1.43517     1.36420
H     -3.03033     1.58704     0.16309
