 11
no_name:-343.385278069317
C      0.32359    -0.58087    -0.27197
C      2.11764    -2.37657    -0.79642
C     -2.42299     2.15893     0.53114
C      2.96347    -3.22210    -1.04144
H      3.70766    -3.96632    -1.25794
C     -2.82062     3.29207     1.14031
C     -1.46421     1.20807     0.25412
C      1.17479    -1.43479    -0.52304
C     -0.61208     0.35531     0.00223
H     -2.55540     4.12252     1.79595
C     -3.77814     2.64479     0.34918
