 14
no_name:-233.045672805764
H      0.51506     1.58811     0.65896
H      1.75616    -1.01095    -0.51602
C      0.12118    -1.15594     0.95775
C     -1.47775     0.17005    -0.56042
H      1.58022     1.53145    -0.76178
H     -3.12984     1.73193    -0.80418
C     -0.43924    -0.81804    -0.41734
H     -0.28561    -0.59212     1.80218
H      0.33460    -2.20719     1.16956
H      2.22659     1.12162     0.84918
C     -2.35405     0.99990    -0.68442
C      0.97990    -0.41464    -0.02316
H     -0.51670    -1.65348    -1.12221
C      1.34449     1.03473     0.19359
