  7
no_name:-191.138381579058
C     -0.83774    -0.45764     0.02591
H     -1.79855    -0.59141    -0.46426
C     -0.15978     0.42212     0.97294
H      0.97406     0.47503    -1.26535
C      0.51474     0.06525    -0.37380
C      1.17745    -0.20567     1.14375
C      0.32597    -1.22002     0.46787
