 16
no_name:-309.115440146343
C      2.30097     0.13281     1.04537
H      2.49448     2.15113    -0.05579
H      1.72113    -1.03064    -1.66722
H     -0.45913     0.43000     1.81873
H      2.87482    -0.42250     1.78452
H     -0.74533    -1.90093    -1.86923
H     -2.07179    -1.15561     0.37246
H     -2.25254     1.38925     0.32164
C      1.06213     0.13892     0.17693
H     -1.06484     1.41419    -1.09100
C     -0.34255     0.32135     0.73688
C     -1.38738     0.92828    -0.16440
C     -1.25765    -0.58018    -0.07887
C     -0.37405    -1.20822    -1.11022
C      0.89342    -0.77572    -1.00097
C      2.14613     1.18048     0.29224
