 18
no_name:-385.210503761171
H     -5.18626     3.54225    -0.16992
C     -3.23385     2.34995    -0.01280
C      1.00977     0.16931     1.31122
C     -1.02211     1.01021     0.17610
C     -4.27018     2.98693    -0.09923
H      2.37109    -1.47963     1.72630
H      0.83140    -2.65129    -1.57010
C      2.23745    -0.65203     1.00527
H      2.86684    -1.25499    -1.08442
C      0.19281     0.28639     0.23549
C     -2.06652     1.64189     0.07850
H      0.80226     0.60553     2.29028
H      0.59713    -0.12528    -1.94240
C      0.71944    -0.51173    -0.92736
C      0.79550    -2.00335    -0.68973
C      2.00464    -1.14816    -0.42173
H      0.23594    -2.41205     0.15802
H      3.15211    -0.03389     1.07549
