 11
no_name:-193.767184818378
H     -1.96462     0.99349     1.35913
C      0.64102    -0.06980    -0.22004
H      1.58972    -0.88976    -1.91789
H     -1.27777    -1.29559     0.17127
C      1.69722    -0.32957    -0.98599
H     -1.14251     1.87710    -0.03383
H      2.69595     0.00664    -0.69745
C     -0.76103    -0.34090     0.06167
H      0.44663     0.10214     2.07568
C     -1.15232     0.99565     0.62175
C      0.15039     0.39795     1.06809
