 16
no_name:-346.585660145268
C      0.65822     2.31722    -0.18471
H      0.84695    -0.98568    -2.17918
H     -1.16283    -3.15971     1.03460
H      0.68611     4.24996     0.70151
C     -0.70650    -2.36121     0.45000
C      0.35127    -1.19753    -1.23256
H     -1.52734    -1.04234     2.80509
C     -0.60126    -0.97411     0.88816
C      0.09141    -0.24225    -0.22498
C     -0.13863    -2.47057    -0.80395
C      0.94905     3.62663    -0.15915
H     -0.06872    -3.38826    -1.38993
H     -0.88847     0.63086     2.25316
H      1.45456     4.11083    -1.00096
C      0.39301     1.09021    -0.22145
C     -1.02947    -0.43328     2.04611
