 14
no_name:-307.861012102054
C     -0.59225    -1.11575     0.49005
H      2.32452     2.87240    -2.72908
C      0.20767    -1.09881    -0.58993
H     -1.99479     1.06703     2.80307
H     -2.19537    -0.78769     2.72447
H     -0.98002    -2.08033     0.83391
C     -1.75841     0.12413     2.30423
H     -0.54739     1.02352     0.83340
C     -0.96317     0.08392     1.21931
C      1.52567     0.84620    -2.01884
C      1.02175    -0.36896    -1.55812
C      1.94499     1.92661    -2.38882
H      1.20396    -2.58962    -2.22280
C      0.91969    -1.69650    -1.66837
