  9
no_name:-267.154295641794
H     -1.37377     0.25924    -1.81875
C     -0.73504    -0.09181    -1.01303
C      0.64423    -0.63855    -0.92361
C      0.49025    -0.66710     0.55446
H      1.13566    -0.91861     1.39149
C     -0.05233     0.65227     0.09449
C     -0.94074    -0.89256     0.22208
C      0.03437     1.94138     0.49964
C      0.11580     3.15139     0.88030
