 11
no_name:-305.886380196456
C      2.48654    -0.92996    -0.03734
C      1.25987    -0.34391    -0.14048
H      4.55238    -1.91416     0.13591
H     -3.22694     0.22200    -1.23504
C     -2.48003     0.47123    -0.48299
C     -1.08602     0.78872    -0.38053
H     -2.43102     1.35998     1.70543
C     -2.27010     1.34886     0.62609
C      0.14966     0.17770    -0.21938
C      3.58545    -1.45376     0.05572
C     -1.67946     2.15502    -0.40682
