 10
no_name:-193.088211338827
C     -1.22796    -0.72522     1.14770
H     -1.81054    -0.46117     2.03378
H     -0.61519     1.26142     0.73379
C      0.21702    -0.08506    -0.75904
C     -0.57195     0.20860     0.43031
H     -1.20263    -1.78193     0.86181
H      2.56809     0.79180    -0.55457
C      1.58832     0.75007    -1.01462
C      0.59096     0.95914    -1.79006
H      0.21419    -1.14235    -1.06615
