 11
no_name:-305.950351253563
C      0.02542    -0.63440     0.38611
C      0.10828    -2.02378    -1.83962
C      0.14158    -2.64975    -2.91129
H      0.17182    -3.18877    -3.83834
C     -0.14287     0.69085     1.04218
C     -0.36639     2.05519     0.89025
H     -0.73825     4.28893     0.53902
C     -0.56422     3.24094     0.70056
H      0.19552    -0.78624     2.80218
C      0.07167    -0.38343     1.79696
C      0.07708    -1.37668    -0.68096
