 16
no_name:-383.932755604779
C     -0.61400     2.93147     1.84457
C      0.94244    -1.87667    -1.61636
H     -1.04999     4.84789     3.02423
C     -0.35440     1.78524     1.13905
C     -0.57851    -1.75274     0.07163
C     -0.84256     3.95226     2.46975
H     -0.32204    -3.69184    -0.91764
C     -0.11994     0.76896     0.50424
H      0.40601     0.32964    -2.50246
H     -1.33648    -1.88422     0.84179
C     -0.07378    -2.63783    -0.79859
H      2.54166    -0.39653    -0.52485
C      0.13542    -0.44198    -0.21813
H      1.53174    -2.32722    -2.41783
C      0.51854    -0.41407    -1.71279
C      1.54258    -0.76234    -0.76437
