 11
no_name:-305.93117438287
H     -2.84593    -0.14445     0.98872
C     -0.93740     0.14062     0.13522
C      1.52921     0.65558    -1.10488
C      2.64821    -0.13517    -0.74086
C      0.33941     0.35596    -0.45920
C      2.57771    -1.14524     0.19675
H     -2.69086     1.22176    -0.29711
C      0.18285    -0.68143     0.52940
C      1.37840    -1.23979     0.65916
C     -2.23353     0.42086     0.28548
H      1.61155     1.44992    -1.84975
