  7
no_name:-153.844056909497
C      0.92756     1.57552     0.43167
C      0.82119     0.25482     0.36652
C     -1.37221    -1.01526    -0.39319
H      1.68234    -0.37389     0.64041
C     -0.36743    -0.42778    -0.04601
H     -2.25815    -1.53680    -0.70349
H      0.29131     2.44050     0.23890
