  7
no_name:-228.48628554002
C      0.29854     0.07299    -0.52220
C     -0.76921    -0.34680     0.44746
C      1.36860     0.60277     1.79716
C      0.44920     0.18586     0.96915
C     -1.96888    -0.85593     0.36655
C      0.73742     0.21868    -1.69413
H      1.11381     0.34714    -2.69399
