 17
no_name:-272.347081414719
H     -0.74212     1.91778    -1.48226
C      1.39684     0.09287    -1.20748
H     -0.57467    -2.47557     1.22715
C     -0.24416     0.20894     0.69354
H     -2.27934    -2.15620     1.61831
H     -1.67292     0.27618     2.22043
C      0.68701    -0.46561    -0.19407
C     -1.24047    -1.84961     1.83773
C      1.33061     1.46112    -1.72194
C     -1.05859    -0.38276     1.59483
H      0.32217     3.26591    -2.20925
C      0.24852     2.25607    -1.79639
H      2.13890    -0.54697    -1.69953
H      2.27512     1.84715    -2.12819
H      0.87425    -1.52566     0.00480
H     -1.06516    -2.09676     2.89977
H     -0.26070     1.30133     0.63854
