 16
no_name:-346.527836874723
H     -0.64253     3.68233     2.10896
C     -0.43616     0.11518     0.08873
C     -0.38211    -1.09886    -0.56152
H     -0.24223    -5.42421    -2.84735
C     -0.30688    -3.39271    -1.77659
H     -1.43138     0.53102     0.27198
C     -0.27147    -4.47470    -2.34689
H      2.17798    -0.53326    -0.20495
C      0.71276     0.85922     0.53398
C     -0.34460    -2.19125    -1.14297
H      1.45741     2.64357     1.52043
C      0.52386     2.14027     1.24478
H      2.85260     0.98311     0.66001
H     -1.60978     2.29218     1.34570
C     -0.63404     2.72711     1.57830
C      1.99009     0.40795     0.31587
