 14
no_name:-270.475097557488
C     -1.54665    -0.82833     0.78480
H      0.97117     1.47772     0.78304
H      0.64520     1.73067    -2.34886
C     -0.27109    -1.25760     1.38722
H     -0.28157    -2.09154     2.09495
C     -0.31751     0.69166    -0.75628
H      1.81916    -0.93191     1.54386
H      1.82690     0.57153    -0.45918
H     -2.48555    -1.26458     1.13989
C      0.87738    -0.62631     1.07867
C      0.90959     0.56547     0.15256
H     -1.19414     1.44099    -2.54365
C     -0.28577     1.31914    -1.94925
C     -1.49346     0.07254    -0.20142
