 16
no_name:-384.001703352059
H     -1.69529    -0.88058     1.70939
C      0.95090    -2.06701     1.64769
H     -2.12510     3.87917    -3.15553
C      1.39433    -2.94699     2.36012
H      1.79698    -3.72104     2.98590
C      0.30015     1.44295    -1.77219
H     -2.08351     1.03142    -0.13544
C      1.01720    -0.37389    -0.19343
C      0.40198    -1.04497     0.83178
C      0.06051     0.58713    -0.73803
H      1.28732     1.42459    -2.24897
H      2.03601    -0.51980    -0.54887
C     -1.18190     0.44596     0.03695
C     -0.98342    -0.51961     0.96722
C     -0.63792     2.36829    -2.28783
C     -1.42676     3.17095    -2.74997
