 15
no_name:-308.459125331154
C      0.14149     0.10448    -0.82695
H     -1.21255    -3.74186     0.81247
H     -2.71253    -2.80274     0.79480
H      2.46510     3.95586     0.80105
C      1.52075     2.38026    -0.25640
H      1.64290     2.63136     1.84691
H     -1.25220    -2.12262     1.57164
C     -0.51261    -0.95925    -0.71626
C      1.89668     3.02466     0.86059
H      1.69484     2.60996    -2.64963
C     -1.21452    -2.10330    -0.59003
C      0.84656     1.25847    -0.91576
C     -1.61319    -2.71606     0.71966
H     -1.51965    -2.62569    -1.50646
C      1.45248     2.23465    -1.65669
