 14
no_name:-382.704102602463
C      3.75972    -1.04879     0.85998
C      2.64451    -0.80574     0.44321
H      4.74618    -1.26267     1.22696
H     -3.51026     0.98280    -0.93662
C     -2.50067     0.74890    -0.59188
C      1.33321    -0.51194    -0.02188
H     -2.68347     1.76050     1.28963
C     -2.04998     1.17306     0.62145
C     -0.48585    -0.55820    -1.57593
C      0.38392     0.26585     0.76940
C      0.86072    -0.93300    -1.24353
C     -0.69480     0.79933     0.96466
C     -1.56645    -0.02107    -1.38154
H      1.49655    -1.52075    -1.90836
