 14
no_name:-307.803057208076
H      1.02417     2.13678    -2.94587
C      0.48181    -1.06292     0.70516
C     -0.44244    -1.52897     1.64183
H      0.56237     1.68250     0.10105
H     -2.00990    -2.27635     3.13518
C     -0.81577     1.55191    -1.68655
C     -1.28325    -1.92181     2.42854
C      0.37804     1.76582    -2.15325
C      1.70685    -0.84554     0.29817
H      0.43341    -0.96082    -1.55382
H      2.77336    -0.91987     0.50035
H     -1.89563     1.61161    -1.80242
C      0.31803     1.09605    -0.80256
C      0.64257    -0.37147    -0.64369
