 16
no_name:-309.155679654483
H      2.66896    -1.22917     0.36372
H      1.60414    -2.14956     1.43916
C      1.65899    -1.66651     0.44806
H      1.55726    -2.44703    -0.32008
H     -0.85739     2.28592     1.24766
H     -2.24576     0.35166    -0.00162
H     -0.60555    -1.27310    -1.39646
H     -1.72294     2.87120    -3.35690
C      0.60616    -0.61239     0.30438
C     -0.39709    -0.55769    -0.60056
C     -0.53090     1.34260     0.80993
H      1.20310     0.78195     2.00135
C      0.51370     0.57568     1.17930
C     -1.43173     1.53657    -1.52548
C     -1.24313     0.67699    -0.35419
C     -1.58678     2.24446    -2.49604
