 17
no_name:-347.218177463745
C     -0.36800     1.97217     1.35751
H      2.07337    -3.14600     0.09306
H      1.18074     0.90208     2.62227
C     -0.96417     1.65423     0.17660
H     -2.01338    -1.51647    -2.52116
C      0.56404     0.91137     1.72191
C     -0.78188    -0.25863    -1.38474
C     -1.16412    -0.82282    -2.49754
C     -0.42391     0.35268    -0.26585
H     -0.54870     2.87244     1.94605
H      2.00908    -1.34707     1.70308
H     -1.70771     2.22376    -0.37862
C      0.55751    -0.07845     0.77064
H     -0.64266    -0.62746    -3.44245
C      1.36567    -1.28377     0.81685
H      0.80143    -2.30142    -0.97665
C      1.41116    -2.29233    -0.07143
