 12
no_name:-231.721038830153
C      0.32512    -1.31230     0.30601
C      0.52110    -2.54867     0.59297
C     -0.72030     0.69389    -1.19394
C      0.11399     0.05602    -0.13910
H     -0.88218    -0.16334     1.83342
H     -1.39490     1.49879    -0.88650
C      0.08131    -0.13259     1.31442
H     -1.09561     0.05628    -1.99871
H      0.95317     0.14672     1.91472
H      1.41293     0.47922    -1.88687
H      1.12632     1.92369    -0.77333
C      0.78167     0.94723    -1.12696
