 14
no_name:-382.605892330109
C      0.91419     0.90201    -0.79602
H      0.14634     1.68563    -0.82176
C     -2.51041    -0.58906    -0.00329
C      1.24474     0.31937     0.65158
C     -1.12470     0.25739     1.55484
C     -2.40169    -0.10760     1.15628
C      0.08875     0.51642     1.56282
H      2.24005     0.53585     1.06936
C      0.42737    -0.52392    -1.10675
C     -2.10402    -0.94937    -1.25533
C     -0.86475    -0.91788    -1.48677
H      1.81192     1.21823    -1.34878
C      0.96159    -1.05983     0.03638
H      0.87123    -2.04440     0.50356
