 11
no_name:-343.322410465158
C      2.22119     0.20040     0.18652
C     -1.27161     0.45265    -1.26052
C     -0.87172    -0.26325    -0.07442
C      1.44095     0.71801    -0.82196
H     -2.06503     0.74902    -1.94512
C      0.01674     0.48820    -0.91646
C     -0.80978    -1.01589     1.06177
C      0.55254    -1.04990     1.53255
H     -1.65555    -1.51219     1.53679
C      1.64663    -0.57129     1.16075
C      2.80281     1.03525    -0.88086
