 15
no_name:-345.964142485556
H     -4.51809     3.71321    -0.17913
C     -2.77162     2.22756    -0.16394
C      0.99443    -0.77756     1.11634
C     -0.79121     0.55459    -0.15543
C     -3.69868     3.01956    -0.16879
H      2.66653    -2.12918     1.48734
H      1.84061    -2.91483    -0.96953
C      1.97764    -1.64377     0.79505
H      2.96568    -1.56986    -1.14475
C      0.29557    -0.35470    -0.12069
C     -1.72742     1.34278    -0.15095
H      0.72667    -0.42182     2.11180
H      0.58313    -0.87163    -2.22878
C      0.87704    -0.98150    -1.18518
C      1.99380    -1.85269    -0.69434
