  9
no_name:-229.849055969592
C     -0.18595     0.23063    -1.68620
C     -1.23462     0.06623    -0.87956
C      0.94694    -0.00534     0.77450
H      0.18462     0.38413    -2.69854
H      0.90491    -0.28369     3.11949
C      0.07413     0.06321    -0.28788
C      1.24956    -0.14344     2.09412
H     -2.31622    -0.00825    -0.77798
C      2.33275     0.02273     1.22691
