 18
no_name:-385.183237199309
C     -0.62433    -0.56726     2.18954
C     -0.82696    -1.91958     1.52333
C      0.15247     1.01694     0.35615
C      0.24293    -0.39601    -1.82242
H      0.41963    -1.26831    -3.75756
H     -1.86794    -2.24820     1.70810
H     -0.08323     2.95379    -0.82214
H     -0.16732     1.44367     2.42960
H     -0.19890    -2.66553     2.04774
H     -0.85128    -0.59041     3.26258
C     -0.22076     0.63144     1.69627
C      0.62300     2.15745    -0.53137
H      1.66572     2.51179    -0.46287
H      0.85141     0.55276    -3.61890
C      0.34153     0.73397    -0.91160
C      0.51978    -0.37226    -3.14258
C     -0.52840    -1.88960     0.09586
C     -0.20293    -1.50377    -1.01146
