 13
no_name:-307.185551623845
H     -2.78972     1.57906     2.31143
C     -1.20329     1.00573     1.03298
C      0.28810    -0.44143     0.46486
C     -2.32490     1.68890     1.32933
C      1.06186    -1.50662     0.05869
C      1.52450    -1.66948    -1.25667
H     -2.80121     2.33695     0.59093
C      1.93446    -1.82075    -2.39666
H      2.29513    -1.95373    -3.39939
H      0.52713     1.67148    -0.25269
C     -0.15820     0.86037     0.03931
H      1.30489    -2.27230     0.80301
C     -0.27137     0.07827     1.67106
