 16
no_name:-234.204007180903
H     -3.20364    -1.30045    -1.09590
C      0.15421    -0.17185     0.12927
C     -0.84252    -0.90601     0.71830
H      0.71000     2.54373     0.52959
C      1.58111     1.88852     0.36978
H      1.81543     1.90150    -0.70762
C     -1.57231    -1.85514    -0.03430
H     -1.77466    -0.47711    -1.76479
H     -2.11109    -2.24465    -2.09143
H      0.20447    -0.13525    -0.96614
C     -2.12672    -1.44270    -1.33492
H      2.20883    -0.15083     0.71520
H      1.09352     0.45446     1.94332
C      1.29660     0.46175     0.85847
H      2.43925     2.32442     0.90501
H     -0.85593    -0.96903     1.81706
