 13
no_name:-381.992725256013
C      0.67364     0.82234    -0.85146
C     -2.18216    -3.20872     0.57590
C      1.98576     2.93048     0.03575
C     -2.78182    -4.26269     0.73271
H     -3.30772    -5.18878     0.87223
C     -0.91464    -0.96933     0.24527
C      2.82902     3.81185     0.07792
C     -1.51697    -2.03688     0.40232
C      1.07958     1.87831     0.02789
H      3.56045     4.59816     0.11013
C     -0.19076     0.18535     0.10742
H      0.50422     0.89751    -1.93721
C     -0.19282     1.54986     0.61860
