 13
no_name:-232.384781635893
C      1.65635    -0.92123    -1.05588
C     -1.25020     0.95263     0.61140
H      2.29154    -0.02178    -1.10788
H      0.66566     1.47324    -0.08336
H      1.54996    -1.30992    -2.08782
C     -2.57390     0.58134     1.08938
H     -2.44053     2.84990     1.55728
C      0.33520    -0.62381    -0.42392
C     -0.04642     0.64614     0.02967
H      2.22256    -1.69404    -0.49999
H     -0.37569    -1.45084    -0.31194
H     -3.34354    -0.17083     1.24421
C     -2.19184     1.84492     1.21854
