 19
no_name:-348.490163360286
C      0.74741     0.61574    -0.02574
C     -0.42345     0.22709     0.78986
H      1.86412     0.37344    -1.81784
H     -1.38447    -2.47515    -1.12321
C     -0.66478    -1.77885    -0.66347
H     -1.89785    -1.32169     1.08464
H     -1.12125     0.95200     2.73753
H      0.75318    -1.78398    -2.32374
H      2.37484     2.15560     0.38279
H     -0.55325    -0.62380    -2.51034
H     -2.18768    -0.28017    -0.31377
C      0.13817    -1.06124    -1.76065
H      1.04844     2.57717     2.66125
C      1.01035     0.03803    -1.21802
C      1.45992     1.66441     0.71329
C      0.77853     1.87110     1.87405
C     -0.39640     0.98136     1.92189
C     -1.39043    -0.78995     0.26344
H      0.03262    -2.38653    -0.06083
