 17
no_name:-272.376560704775
C     -0.23998     1.71170    -0.14424
C     -0.42355    -0.99279    -1.02513
C     -1.65636    -0.21512    -0.63805
H     -2.44680     1.65473    -0.01126
H     -0.57632    -2.07408    -0.87050
H      1.81715    -0.77519     1.67735
C     -1.55362     1.06799    -0.24456
H     -0.19624     2.79717    -0.01470
C      0.83853    -0.53059    -0.26894
H     -2.63625    -0.69173    -0.73884
C      0.89042     0.98177    -0.18742
H      1.86790     1.46140    -0.07302
H      0.03837    -0.82611     1.74401
H      1.71931    -0.88728    -0.82949
C      0.91603    -1.12568     1.14935
H      0.94872    -2.22749     1.11293
H     -0.26617    -0.86318    -2.11540
