 13
no_name:-269.843295009204
C      1.29123     0.87261     0.08549
H      4.26412     2.73889    -0.96297
H     -1.55743    -2.61086     0.90601
C      2.40426     1.57150    -0.30497
C     -0.86017    -0.48324     0.85247
H     -1.92406    -0.22749    -1.10301
C      3.39417     2.18987    -0.65612
C     -2.02642    -0.67170    -0.10976
H     -1.12494    -0.36665     1.90987
C      0.30184     0.25306     0.44475
H     -0.46084    -2.20951    -0.51873
H     -3.03097    -0.61450     0.31796
C     -1.16177    -1.84332     0.23546
