 14
no_name:-307.87429974962
H      0.52850     3.77955     1.97207
C     -0.17345     0.53834     0.32291
C      0.37139    -1.04479    -1.50026
H      1.30258    -2.55704    -0.20565
C      0.07316     1.77838     0.96022
C     -0.54497     0.08731    -1.10545
H      0.71928    -1.25187    -2.51163
H     -0.95442     0.81578    -1.80867
C     -0.08167    -0.94867     0.72612
C      0.66001    -1.69078    -0.35889
C     -1.33162    -0.32127     0.12974
H     -0.04551    -1.21667     1.78434
C      0.31536     2.84210     1.49416
H     -2.37295    -0.23347     0.44247
