 12
no_name:-306.561016494848
C     -1.06442     1.51724    -1.49629
C     -0.37620    -0.04960     0.52359
H     -1.14118    -0.26691     1.28044
H      1.65282    -0.32527    -0.04166
H      1.95466    -2.53418     3.64550
H     -2.49705     1.19876    -3.34361
C      0.88523    -0.54305     0.70994
C      1.27732    -1.30008     1.83819
C     -1.81320     1.79940    -2.75079
C     -1.11094     2.82694    -2.36992
C      1.63973    -1.95502     2.79713
C     -0.71212     0.76993    -0.56138
