 17
no_name:-347.137873355617
H      0.59103     0.49913     2.06265
C     -3.88263    -1.09044    -2.28837
C     -2.73230    -0.42858    -1.95308
C     -4.90843    -1.67846    -2.58613
C      1.41378    -0.11310     0.17634
C      1.50245     0.01230     1.68145
C     -1.70212     0.15809    -1.65072
C     -0.52027     0.87096    -1.31232
C      0.45772     0.37554    -0.56871
H      2.81080     0.82384     3.23015
H      2.23752    -0.64562    -0.32319
H     -5.81053    -2.19703    -2.85055
C      2.74867     0.78281     2.13104
H      2.73292     1.81663     1.75067
H      3.67032     0.30460     1.75986
H      1.52352    -1.00470     2.11313
H     -0.42558     1.89515    -1.70324
