 11
no_name:-231.153335355804
C      0.51888     0.36869     1.14097
H      0.48552     0.44861    -2.32191
C      1.17452     0.84691     2.18937
H      1.68689     1.32457    -0.43367
H      1.11453     0.76727     3.27492
C      0.83851     0.65978    -0.24877
C     -0.95937    -0.70737    -1.23483
H     -2.76509    -2.11344    -1.15757
C      0.16016     0.16520    -1.31498
C     -1.91794    -1.45487    -1.19569
H     -0.34009    -0.30466     1.30983
