 16
no_name:-309.194050950995
C     -0.28415     1.78793     1.17286
H      1.51687    -2.17607     0.41364
H      1.16430     1.07382     2.67040
C     -0.79152     1.19759    -0.06749
H     -1.25293    -1.57835    -3.21093
C      0.60872     0.93549     1.74336
C     -0.40407    -0.97185    -1.35935
C     -1.17249    -0.79930    -2.44915
C     -0.21089    -0.02648    -0.26977
H     -0.58868     2.76047     1.56245
H      2.13257    -1.38373     1.98524
H     -1.52539     1.67188    -0.72036
C      0.71124    -0.25217     0.88089
H     -1.74321     0.11891    -2.61711
C      1.49157    -1.32659     1.10094
H      0.14118    -1.91782    -1.26719
