 13
no_name:-344.660102369899
C      0.88909     0.29093     1.30439
C      0.91833    -1.34706    -0.40402
H      0.92104     0.20179     2.40240
C     -1.04244     1.68969     0.19421
C     -1.82337     0.72289    -0.52440
C     -1.87651    -0.29964    -1.20982
C      0.00535     1.13141     0.79257
C      1.63216    -0.75387     0.56662
H     -1.63868    -2.02488    -2.61310
C     -0.04362    -1.62931    -1.18172
H     -1.17083     2.76864     0.05672
H      2.58124    -1.13520     0.95423
C     -1.23980    -1.44035    -1.78080
