 10
no_name:-267.895648790849
H     -1.09690     1.13955     2.91461
H     -1.08531    -2.87266    -2.59060
C     -0.11820    -0.95829    -1.78409
C     -0.63513    -1.97197    -2.21667
C      0.55506     0.88499     1.24341
C     -0.09539     1.15618     2.48792
C      0.51647     0.59186    -0.01539
C      0.47163     0.23913    -1.30711
C      1.23304     1.24861     2.54134
H      0.91462     0.90984    -2.06040
