  9
no_name:-229.799898209467
C      0.94901    -0.72748     0.52035
C     -0.88394     0.10197    -0.62927
C      0.27371    -0.73506    -0.73038
H     -1.47411     1.52119     1.00766
H      0.64910    -1.14952    -1.66805
C     -0.84267     0.69857     0.67151
C      0.22490     0.11389     1.42512
C      0.68111     0.86307    -0.15180
H      1.94123    -1.13449     0.72478
