 10
no_name:-267.836364418524
C      2.49992    -0.72319     0.50935
C      1.35621    -0.47398     0.19523
H      3.51214    -0.95258     0.78678
H     -3.03086     0.35050    -0.77739
C     -1.95636     0.26562    -0.64419
C      0.03813    -0.13211    -0.19132
H     -1.06747     1.37223     1.22749
C     -0.99716     0.76407     0.32533
C     -0.93011    -0.61333    -1.18151
C     -1.32070    -0.84583     0.33049
