 14
no_name:-270.478347542689
C      0.03807    -1.20378    -1.26776
H      0.10331    -2.30233    -1.12554
H      0.47242     2.46021     2.30050
C      1.15074     0.41784     0.28095
C     -1.26418    -0.69461    -0.72224
C     -0.14843     0.89775     0.79536
C     -1.34480     0.26282     0.21714
C      1.23751    -0.53923    -0.65817
H      2.22315    -0.86295    -1.00847
H      2.05654     0.87066     0.69260
H     -2.18224    -1.13728    -1.12183
H     -2.31729     0.60090     0.58296
C     -0.22654     1.84954     1.72834
H      0.05931    -1.07922    -2.37027
