 14
no_name:-382.729276202266
C      0.42779    -0.32177    -0.50262
H     -2.24360     1.79360     2.66994
C      2.60689    -0.47589    -1.89758
C     -0.77248    -0.24450     0.26150
C      3.63283    -0.54463    -2.55232
H      4.53711    -0.60221    -3.12857
H     -1.63453    -2.07201    -0.61892
C     -2.11483     0.96786     1.96765
C      1.45439    -0.40126    -1.16262
C     -3.00931    -0.06196     1.71099
C     -0.95441     0.82768     1.18144
C     -1.77489    -1.25131     0.08595
H     -0.15477     1.56676     1.27380
C     -2.86044    -1.01053     0.90439
