 10
no_name:-267.934824532771
H     -0.77101     1.90017     0.22640
C     -0.68635    -0.10923    -0.47114
H     -1.65929     0.07411    -0.94171
H     -0.74096    -2.10183    -1.24092
C     -0.14505    -1.39554    -0.64890
C     -0.14745     0.99713     0.23708
C      1.05761     1.07453     0.93274
C      1.73983    -0.89950     0.57700
C      2.10745     0.21161     1.19300
C      1.09597    -1.78255    -0.10678
