 19
no_name:-385.897313320201
C     -0.17070     0.72650    -0.15101
C     -1.45847     1.41303    -0.39092
C     -2.43686     0.73303     0.29589
C     -1.87623    -0.42074     0.93761
H      0.16545    -2.39785     1.40407
H     -2.43721    -1.16825     1.50039
C     -0.50507    -0.49250     0.63608
H      1.03610     1.14511    -2.03822
H      2.66594    -0.75667    -1.69656
H     -3.48986     1.01650     0.34069
H     -1.56947     2.34715    -0.94244
H      2.22219    -2.45810     0.01158
C      1.84521    -0.61632    -0.98812
C      1.08323     0.64655    -1.06476
H      0.99692     2.61131    -0.00851
C      1.57608    -1.57772    -0.04691
H      1.68830     1.22634     1.00448
C      0.41168    -1.53607     0.77829
C      1.08113     1.53322     0.14875
