 16
no_name:-309.166902764215
H      3.91684    -1.41735     0.84983
H     -2.98006    -0.79643     0.50054
H     -2.23492     1.02520    -1.27765
C     -0.76719    -1.18145     0.78511
C      1.70433    -0.95769     0.47733
C     -1.57785     0.38214    -0.68989
C      2.88338    -1.19239     0.66620
H      0.22679     0.07249    -1.79835
C      0.34962    -0.63992     0.21752
H      1.64777     1.73729    -0.57850
H     -0.77173    -1.96811     1.54080
C     -0.07609     0.41947    -0.78953
H      0.21771     2.52368    -1.30271
H      0.25881     2.18093     0.44946
C     -1.95534    -0.54605     0.22047
C      0.54945     1.79999    -0.54182
