 11
no_name:-305.950969017906
H     -2.36458    -0.25655     0.04827
C     -1.47343     0.25883     0.44412
C      1.88025     0.40487    -1.50189
C      2.22820    -0.48870    -0.48772
C      0.52376     0.74701    -1.25100
C      1.75746    -1.06377     0.52694
H     -1.83885     1.09748     1.06023
C     -0.57906    -0.66120     1.20990
C      0.58194    -1.10235     1.19411
C     -0.54609     0.70300    -0.63217
H      2.50522     0.76950    -2.31698
