 11
no_name:-231.19935444396
C     -0.30675    -0.06025     0.21258
H     -2.07074    -0.62137    -0.83722
C     -1.63310    -0.26117     0.09848
H      2.89122    -0.01497    -0.85108
H     -0.04509     0.67704     2.36717
H      0.47966    -0.63795    -1.84830
H     -2.31313    -0.07150     0.93363
C      1.93093     0.03497    -0.33826
C      0.41919     0.42272     1.41550
C      0.70722    -0.28098    -0.84288
C      1.71251     0.46069     1.04466
