 15
no_name:-196.258801079889
H      1.80460    -0.75723    -0.23545
C      0.37298     1.59352     0.35011
C     -0.37165    -0.95281     0.22877
C      0.20918     0.22712     0.97864
H     -0.05938     0.26488     2.04118
H     -0.86302    -1.85726    -1.67667
C     -0.83478    -0.85915    -1.20848
H      0.69379     1.52828    -0.70067
H     -0.16521    -0.23294    -1.81740
H     -0.98750    -1.62078     0.84283
H     -1.84845    -0.42906    -1.27851
H     -0.57065     2.16474     0.37578
C      1.09681    -0.92953     0.58313
H      1.13445     2.18314     0.88757
H      1.46835    -1.60550     1.35902
