 11
no_name:-268.566281430606
C     -0.61541    -0.37155     0.86861
C     -0.70358    -1.70004     0.45297
H     -0.85070    -3.88343    -0.22607
C     -0.78017    -2.85890     0.09014
C     -0.17836     0.89072     0.67888
C      0.55184     1.84460    -0.12366
H      1.71511     2.23849    -1.86165
C     -0.94767     0.63072     1.83791
H      1.13629     0.47342    -1.63807
H      0.58159     2.87392     0.24904
C      1.16657     1.50261    -1.26739
