 18
no_name:-385.198103535988
C      1.69768    -0.49675    -1.96998
C      2.43840    -0.44267    -2.93213
C     -1.91030     0.88213     1.19413
H      3.09321    -0.41547    -3.78261
H     -0.60861     1.10227    -1.13762
H     -0.20938    -0.15003     3.03654
H     -3.96057     1.79738     1.62674
C     -0.35473    -1.19826     1.06811
C      0.51322    -1.57179    -0.07672
H      1.31263    -0.02012     1.99293
C      0.82381    -0.50486    -0.84877
C      0.10784     0.75368    -0.37554
H      0.88150    -2.58491    -0.24805
C     -0.62241     0.31166     0.90156
C     -2.99984     1.36526     1.42018
H      0.80992     1.58300    -0.18854
H     -1.13977    -1.87432     1.41719
C      0.23479    -0.20363     2.03959
