 11
no_name:-193.775521160491
H      1.01460     0.17286     2.96139
C     -0.01193     0.03791    -0.18615
H     -0.43184    -1.38690    -1.83177
C      1.44345    -0.04210     1.97576
C     -0.89056    -0.66340    -1.14779
H     -1.90351    -0.92732    -0.82214
C      0.71094    -0.00024     0.88645
H      0.13747     1.09178    -2.13041
H     -1.33431     1.55159    -1.12105
H      2.50982    -0.29306     1.93825
C     -0.55199     0.81138    -1.32557
