 14
no_name:-307.86946534079
H     -1.74389     2.67074     1.63641
C      2.55410    -1.72050    -1.63481
H      4.17163    -3.26674    -2.13548
C      3.41057    -2.54518    -1.90591
C     -0.94613     1.03209     0.38457
C      0.71631     0.01835    -1.06769
H     -0.38363     0.65767     2.48497
C     -1.15050     0.47936     1.72152
C      1.58563    -0.79974    -1.33938
H     -3.02015     1.52651     0.96755
H     -1.66063    -0.48678     1.81685
H     -0.52881     1.70480    -1.56554
C     -1.96227     1.68331     1.21152
C     -0.28868     0.97690    -0.78015
