  9
no_name:-229.796084940279
C      0.42406     0.99947    -0.12140
C     -0.27836    -0.24593     0.24302
C      0.63778     1.36058    -1.69817
H     -2.12149    -0.06296     1.25599
C      0.99679    -0.67424    -0.33036
C      1.29063     0.27592    -1.26054
H     -1.45501    -1.80909     1.03370
H      0.94606     1.59209     0.64029
C     -1.34188    -0.73297     0.88807
