 14
no_name:-270.402750453594
C     -0.35900    -0.98574    -0.45593
C     -1.44139     0.04715    -0.13307
H      1.13003    -0.45867    -2.11648
H      0.96498     2.72071     0.45875
H     -1.32485     1.05314    -0.55001
C      1.37458     0.52008    -0.11133
H     -0.68312    -1.99927    -0.71628
C      1.16792     1.65433     0.56991
C     -0.52746    -0.39331     0.96583
H     -0.94082    -1.01881     1.76085
H     -2.47281    -0.31511    -0.10601
H      1.36228    -0.01382     2.08503
C      0.87983    -0.40167    -1.05516
C      0.75604     0.37893     1.25709
