 14
no_name:-307.967030749909
H      1.97922     1.37452     0.60466
C      1.17312     0.66407     0.40581
C     -1.03352     0.05308    -0.46182
C      0.29287    -1.63140     0.55765
H      2.21277    -1.04016     1.29854
C     -0.93234    -1.25781    -0.09705
H      0.42818    -2.66976     0.87120
H     -1.71515    -1.99845    -0.27801
C      0.00509     1.00099    -0.21377
C      1.29742    -0.71439     0.79774
C     -0.86296     2.07139    -0.87246
H     -2.83383     1.22855    -1.57640
H     -0.74407     3.13656    -1.07548
C     -1.85001     1.17035    -1.10872
