 13
no_name:-269.685646123454
H     -0.29617     2.03503    -0.57414
H     -0.12204    -2.11797    -1.84899
H      1.32308     1.38985     1.90110
H     -1.63757     0.54687     1.71747
H     -0.51947    -0.55533    -2.71784
C      0.36588    -0.26853    -0.66868
C      0.66342     0.85256     1.22710
C      0.01672    -1.02737    -1.88164
C      0.34970    -0.58276     0.83564
H      0.58894    -1.50011     1.37709
C     -0.06815     1.08579    -0.08530
C     -0.72524     0.45451     1.13603
C      1.43560    -0.53798    -1.64568
