 16
no_name:-346.505690924926
H      1.45261     1.74797     3.90655
C      0.44531     0.60296    -0.44307
C      0.39224     0.37426     0.91375
C     -0.48923    -0.65287    -2.66429
C      1.00045     1.24262     1.87627
C     -1.18270    -1.80372    -2.23546
C      0.96974     1.05027     3.21861
H      0.45834     0.18652     3.65489
H     -2.31219    -3.68177    -1.55993
C      0.11101     0.21289    -1.79346
H     -0.14161    -0.51411     1.26418
H      1.52450     2.12113     1.48008
C     -1.78229    -2.80462    -1.87895
H      1.37272     2.23648    -1.90753
H     -0.43088    -0.44625    -3.73809
C      0.84929     1.36156    -1.52668
