 13
no_name:-232.373669833041
C     -0.69223    -0.96431     1.35492
C      0.60138    -1.09252     0.56327
C      0.06804     0.13759    -0.23762
C      0.17375     0.43464    -1.66464
H     -0.57445     0.61721    -2.43919
H      0.71651    -2.01370    -0.03205
H      0.51048     2.35313    -0.57911
H     -2.03835     0.71602     0.69829
H      1.53188    -0.90085     1.12412
H     -1.10395    -1.54599     2.18313
C     -1.13441     0.10193     0.65999
C      0.88486     1.33249    -0.74257
H      1.97626     1.24462    -0.64453
