  9
no_name:-192.442424884537
C      0.21464    -0.10474    -0.19610
C     -1.03739    -0.70923     0.06270
H      0.24065    -2.45311    -0.81332
C      1.04076     1.00361    -0.18315
C      0.62397     2.26899     0.27637
H     -0.44362     2.14591     0.59845
H     -2.06106    -0.62168     0.42414
C     -0.07118    -1.47261    -0.45609
H      2.06034     0.83741    -0.56265
