 16
no_name:-346.427929546409
C     -1.76417    -0.34178    -0.23471
C     -1.92331     0.17181     1.10044
H      0.87937    -0.27717     0.94753
H      3.75219     1.94587    -0.18484
H     -2.53832    -0.02326    -0.94150
H     -2.18698     0.99451     3.21712
C      3.02112     1.36236    -0.74674
C      1.89923     0.60495    -0.75016
H     -1.55223    -2.30392    -1.28346
C     -0.34991    -0.45920    -0.87397
C      2.54906     0.94368    -1.99681
C     -2.05941     0.60804     2.22351
C      0.83703    -0.06621    -0.12592
H     -0.80166    -2.24348     0.40109
H     -0.31438    -0.22247    -1.94068
C     -1.14772    -1.68936    -0.47520
