 11
no_name:-305.956986377426
C     -1.53192    -0.69277    -0.77559
H     -2.47006    -1.13735    -1.10834
C     -1.00944    -0.20127     0.57375
H     -0.00565    -0.42556    -2.41343
C     -0.37184    -0.35746    -1.38904
C      1.31142     0.72660     0.56392
C     -0.06854     0.57515     2.47425
C      0.23170     0.15897    -0.07767
C      1.05126     0.91635     1.96574
H      2.24732     0.99861     0.07173
C     -1.15654     0.02133     1.91504
