 16
no_name:-309.018249200092
C     -1.05767     0.83138     0.70823
H     -2.68174    -0.38337    -0.25175
H      1.78314    -1.94593    -1.73550
C     -0.00520     0.00311     0.20932
H      5.09777    -2.12118    -0.50852
H      3.23150    -1.49717     0.95643
C      1.90216    -1.54271    -0.72201
H     -2.14500     2.68887     0.09441
C     -2.51110     0.50123     0.36649
C      3.10107    -1.83353    -0.08683
C      0.89306    -0.70864    -0.21963
H     -0.88251     1.25818     1.70185
H     -3.24145     0.65301     1.16559
H     -1.59265     1.63902    -1.31551
C     -1.86960     1.69203    -0.25989
C      4.09405    -2.39165    -0.91190
