 12
no_name:-231.813933592912
C     -0.96472     0.60629     0.99060
H      0.31678    -0.02244    -2.15099
C     -0.04286     0.17553    -0.02041
H     -1.39091    -0.24513    -1.65939
H      3.17803    -0.20031     0.76604
H     -2.48654     1.31679     2.54417
C     -0.46986     0.32985    -1.46962
C     -1.77721     0.98565     1.80946
H      2.42539    -1.91330     0.80505
C      1.13108    -0.33340     0.31880
H     -0.68899     1.38684    -1.69208
C      2.29287    -0.83651     0.64158
