 10
no_name:-267.833443598448
C      0.87469     0.93975     0.02038
C     -0.13473     0.45286    -1.07777
C      0.97430    -0.14290     1.00433
H      1.65575     1.65033    -0.25578
C     -1.08857    -0.11999     0.02875
C     -0.23136    -0.79339     1.00925
H     -2.11277    -0.38457    -0.23997
C      0.80910    -1.27384     1.87405
H     -0.03878     0.26684    -2.14753
C     -0.60539     1.33226    -0.09228
