 15
no_name:-345.855966387988
C      1.82013     0.61102     2.81485
H      0.57896    -1.86581    -1.71440
C      0.27492     0.39411    -0.91774
H      2.69759     0.73339     4.92882
C     -0.06315    -1.01448    -1.47793
H     -1.76287    -0.63428    -3.19207
C      2.28914     0.67723     3.93765
C     -1.29227    -0.52048    -2.22101
C      0.83849     0.48294     0.41898
C      1.29575     0.53840     1.54936
C     -1.26927     0.46702    -1.06721
H     -1.97442     1.27084    -0.84432
C     -1.45621    -1.02803    -0.87226
H     -2.11083    -1.70893    -0.33836
H      0.82912     1.04089    -1.62265
