 10
no_name:-305.298259312921
H      1.76846    -1.32959    -0.28994
C     -1.36328    -0.79439     0.99926
C     -0.06256    -0.94913     0.81674
H      1.61710     1.53833     0.18780
C     -0.15194     1.22068    -0.97856
C      0.90785     0.82489    -0.25100
C     -1.41767     0.93174    -1.04574
C      1.02295    -0.65467     0.13548
C     -2.14863    -0.19611     0.15537
C     -2.70955     0.73310    -0.66460
