 11
no_name:-305.921148855507
C      0.28144     1.45970    -0.45410
C     -0.20465     0.09040    -0.03193
C     -2.54627    -0.92976    -0.65304
H      2.87520     0.24571     1.34468
C     -1.46360    -0.45901    -0.36383
H     -3.50410    -1.34245    -0.90917
H      0.76362    -1.45812     1.15969
C     -0.39580     2.32204    -1.18554
C      0.80890    -0.46537     0.70914
C      1.94742     0.44975     0.81024
C      1.61974     1.56597     0.12477
