 18
no_name:-347.859959423865
C      1.68183    -0.83358    -0.96288
C      0.36191    -0.69998    -0.52770
C      2.54256    -0.08788    -0.08025
H      2.00639    -1.37076    -1.85569
C      0.37236     0.08286     0.77675
C      1.81005     0.50127     0.91496
H      3.62566    -0.01172    -0.19787
H     -0.51517     1.96493     0.15031
H      2.20051     1.10458     1.73588
H     -0.90220    -1.72256    -1.96492
H     -2.99498     0.90390     0.74458
H     -3.02937    -0.92099    -0.88832
C     -2.06932    -0.53869    -0.52853
C     -2.05349     0.48154     0.38205
C     -0.86146    -1.07427    -1.08560
H     -0.85103     1.54722     1.83550
C     -0.75668     1.11763     0.82508
H      0.16241    -0.65786     1.57953
