 11
no_name:-231.134202777152
H     -1.56223     3.07352     1.70300
C      0.05378     0.19283     0.30595
C      0.15509    -0.73504    -0.50769
C     -0.04116     1.22459     1.17618
H      0.69320    -2.72206    -1.02995
H     -0.65997    -2.04688    -1.96292
C     -0.74405     2.35758     1.75780
C      0.30679    -1.79604    -1.49183
H      1.00494    -1.52063    -2.30549
C      0.31383     1.90714     2.41066
H      0.97450     1.99165     3.27172
