 11
no_name:-305.901829642127
C      0.47653     3.14236    -2.25400
C      0.14183     2.11453    -1.56171
C     -0.88852    -1.09037     0.58449
H      0.44552    -3.12110     0.10670
C     -0.19702     1.05529    -0.84931
H     -1.97177    -1.28083     0.64181
H      0.26500    -1.29784     2.76599
C      0.81545     4.18986    -2.95945
C      0.06691    -2.28472     0.68717
C     -0.00499    -1.55815     1.74656
C     -0.51856     0.05655    -0.17975
