 11
no_name:-231.18007391702
C      1.38974    -0.04630     0.88954
C     -1.10499     0.54741     0.38112
H      3.36665    -0.18122     2.05739
C      0.20947     0.02409     0.16954
C      2.44636    -0.12255     1.50769
C     -1.55982     0.14892    -0.86105
H     -2.51156     0.22852    -1.38738
H     -0.18696    -1.55304    -1.37822
C     -0.20651    -0.45877    -1.23609
H     -1.56162     1.06851     1.22550
H      0.32839     0.02382    -2.07218
