 12
no_name:-381.347319604947
C      0.71169     0.16490    -0.97195
C     -2.68076     1.17319     0.18422
H      3.26610    -3.09128     1.61388
C     -3.84542     0.86727     0.34633
C      2.20319    -1.71663     0.12218
H     -4.87643     0.59672     0.48679
C      2.76608    -2.44596     0.91431
C     -1.34260     1.52852     0.00293
C      1.55705    -0.88071    -0.79070
C      1.28209    -0.49051    -2.11713
C     -0.29594     2.46678     0.11078
C     -0.11335     1.14504    -0.42434
