 10
no_name:-342.512257831399
C      0.45846     1.14965     0.62633
C     -0.75791    -1.08336    -0.74502
C      1.77081     0.29152     0.91607
C     -1.56449    -0.35989     0.08003
H     -2.64294    -0.21161     0.05382
C     -0.57220     0.22556     1.00973
C      0.60177    -1.18801    -0.43771
C      1.47477    -0.03570    -0.58210
C      0.97635     1.30677    -0.68693
C      0.65359    -0.64117     0.95528
