  7
no_name:-228.588744140878
C      1.14305     0.39203     0.53916
C     -1.26873    -0.31499    -0.21550
C      2.16839     0.79160     1.20408
C     -0.58635    -0.51108    -1.37178
C      0.08442    -0.01529    -0.13037
H     -2.16996    -0.32155     0.39705
C      3.19731     1.20086     1.89674
