 13
no_name:-344.667469307135
C      0.32655     1.81265     0.41191
C     -0.81450     1.78996    -0.17909
C     -2.06765    -0.07167    -0.97597
C      1.21853    -1.40952     0.57548
H      1.76767    -2.35081     0.66737
C     -1.05720    -0.89633    -0.55396
C     -0.01090    -1.32967    -0.02551
C     -1.97456     1.32955    -0.70281
C      1.20984     0.96152     0.79550
H      2.96780    -0.20820     1.13736
C      1.89354    -0.19899     0.93017
H     -3.00604    -0.45518    -1.38627
H     -2.86604     1.96130    -0.75986
