 13
no_name:-269.797243109204
C      0.93381    -0.65024     1.03972
C      0.07102     0.32970     0.86344
C     -0.65424     1.42555     1.33372
H      0.51847     0.48835    -2.28174
H     -1.88410     3.22397     2.04054
C     -1.30979     2.38145     1.70349
H      1.60503    -1.17248     1.71869
C      0.36392    -0.54881    -0.31497
H      1.72594    -0.88172    -2.05014
H     -1.38563    -1.06563    -1.59533
H     -0.18461    -2.44095    -1.36174
C     -0.36799    -1.36146    -1.31676
C      0.78365    -0.42156    -1.73177
