 10
no_name:-267.865114976848
C      0.29318     0.54852     0.63738
C     -0.93244     0.70231    -0.02010
H     -1.91599    -0.92867    -0.95768
C      1.45039    -0.06996     0.75436
C     -1.71602     0.14011    -1.13673
C      2.56998    -0.69907     0.84358
C      3.70930    -1.32783     0.93521
H     -2.67008     0.67613    -1.24120
C     -0.72729     1.55222     1.01946
H     -1.14766     0.21678    -2.07739
