 18
no_name:-310.372113343089
C     -1.43263     0.88308    -1.17227
C     -2.16870     0.63572    -3.52554
H      3.62107    -0.18932     2.06889
H     -2.48340     1.68322    -3.57700
H      0.85288    -1.06770     3.21973
C     -1.63903     0.12024    -2.40514
H     -2.30420     0.02935    -4.42440
C      1.03641    -0.11071     1.35878
H     -1.73699     1.94010    -1.18981
H     -1.33184    -0.93115    -2.37949
C      1.54641    -0.62533     2.49189
H      1.70638     0.33695     0.61543
C     -0.91778     0.38985    -0.06319
C      2.99860    -0.64730     2.85314
H      3.18406    -0.10548     3.79805
H     -1.06407    -0.55668     1.78285
C     -0.39078    -0.10756     1.03786
H      3.35538    -1.68043     3.01445
