  9
no_name:-267.320293664423
C      1.41020    -0.25634    -0.77652
H      3.54115    -0.16192     0.18428
C      0.10336    -0.11055    -0.34891
C      2.73382    -0.27029    -0.54130
C     -2.35412     0.15548     0.42779
C     -3.51064     0.28148     0.79402
C      2.33235    -0.51625    -1.86291
H     -4.53032     0.39151     1.11454
C     -1.06116     0.01491     0.01768
