  8
no_name:-116.978887987266
H     -0.89145     0.68640     1.15557
H     -0.28738     0.16643    -1.28062
H      0.69604     0.08322     1.68780
H     -0.13601    -1.31409    -0.28224
H      1.31904    -0.41047    -0.76628
C      0.26785    -0.30455    -0.45602
C      0.19139     0.55378     0.81496
C      0.22047     1.98330     0.77295
