 10
no_name:-305.197590065644
C      0.73886    -0.28164    -1.23069
C     -2.03590    -0.25134     1.05385
C      0.00948     0.90422     0.93383
H      1.79945    -0.55520    -3.24177
C     -0.88712     0.14368     1.88293
C      0.08111    -0.13635     0.00466
C      1.30196    -0.42747    -2.29721
H      0.45764     1.90023     0.93737
C     -0.82121    -1.05055     0.84216
C     -0.15484    -1.10479     2.14938
