 13
no_name:-232.400198990541
H     -0.76157     1.81405    -0.16792
C     -0.79248    -0.82626    -0.70582
H      0.94224    -3.26829     0.05120
C      0.07783     1.26878     0.28151
H     -1.62990    -2.60377    -1.63844
C     -0.80421    -2.26842    -0.99270
H      0.90255     3.02197     1.17197
H      0.96125    -0.70945     0.47938
C      0.12423    -0.15886     0.03303
H     -1.61794    -0.25413    -1.14493
H      1.83290     1.43271     1.47721
C      0.98273     1.94380     1.01378
C      0.04839    -3.19033    -0.56825
