 15
no_name:-271.156663415845
H     -1.54296    -1.03047     0.63120
H     -0.82918     0.26881     3.17789
C      0.40751     0.78677    -1.06710
C     -0.21038     0.61395     1.16795
H     -0.19193     1.98245     2.79422
H      0.10383    -1.54126     1.03925
H      0.77362     1.19154    -2.01277
C     -0.06683    -0.58818    -0.91605
C     -0.48053    -0.74916     0.54201
C      0.32625     1.46336     0.10562
H      0.61588     2.50432     0.26283
H     -0.49698    -2.53147    -1.67743
H      0.19916    -1.30250    -2.90021
C     -0.12501    -1.52341    -1.87959
C     -0.42224     0.97182     2.44603
