  9
no_name:-304.554230248653
C      0.97613     0.89203     0.37856
C      0.01830     1.14767    -0.61690
C     -1.83305     0.26262    -0.21642
C      1.15054    -0.57873     0.10438
H      2.07406    -1.11812     0.32275
C     -1.41690    -0.93807     0.28737
C     -0.19683    -1.20156     0.38627
C     -1.37721     1.34614    -0.68521
C      0.95806     0.24497    -1.14173
