 15
no_name:-345.878548857263
C      1.03641    -0.61037     0.52181
H     -3.07877     3.66371    -0.15029
H      3.13807    -0.71353     0.73763
C     -0.46236    -0.75398     0.35931
C     -1.03944    -1.24165    -0.87378
C      2.19409    -1.25797     0.64153
H     -1.95542    -2.00291    -2.82432
C     -1.09548     2.55960     0.14669
H      1.04448     2.51647     0.41852
H      2.22979    -2.35065     0.64131
H     -1.02311    -1.02473     1.26815
C      0.14476     1.89490     0.33294
C      0.26982     0.56006     0.40841
C     -1.52257    -1.64442    -1.90966
C     -2.14695     3.14923    -0.00858
