 16
no_name:-383.954259321504
H     -3.12202     0.03175     1.34538
C     -2.20360     0.86020    -0.38778
C      1.50537     0.78081    -2.00243
C      1.99631    -0.06938    -0.90067
C      0.08359     1.00237    -1.68303
C      1.99860    -0.72210     0.12226
H     -3.12705     1.34639    -0.71820
C     -1.01107    -0.51170     1.20874
C      0.09045    -0.98269     1.43001
C     -1.01684     0.99731    -1.16036
H      2.05900     1.73490    -2.06347
H      2.06857    -1.01722     2.24829
C      1.51245    -1.36408     1.35893
H      1.63517    -2.46158     1.32805
C     -2.20076     0.12793     0.76200
H      1.62677     0.29119    -2.98531
