 12
no_name:-381.271533586946
C      0.02815    -0.03019     0.00778
C     -3.75460     0.35599    -0.70995
H      2.81710    -1.63660    -0.41948
C      2.14732     0.37602     0.85201
C     -5.02493     0.49065    -0.95231
C     -2.50313     0.22382    -0.47253
C     -1.24661     0.09523    -0.23542
H      2.70459     1.05683     1.48638
C      2.19848    -0.84434    -0.01190
C      1.06133    -0.62781     0.91047
C      1.41106     0.33644    -0.43129
C     -6.29257     0.60967    -1.17318
