 14
no_name:-195.596357060299
C      0.36603    -0.09361    -0.60340
H      2.00995    -1.02867     0.60741
H     -1.48251     0.43778    -1.60874
C     -1.03825    -0.41019    -1.06160
H     -1.70244    -0.64365    -0.21592
H      0.30796    -1.38969     1.20365
H      1.50027     1.42050     0.55979
H      1.06758     0.10794    -1.42170
H     -1.04009    -1.28451    -1.73399
H     -1.32361     0.68859     1.72281
C      0.63178     0.76026     0.65381
C      0.95580    -0.73554     0.61070
H     -0.38781     2.30172     1.88615
C     -0.44059     1.28682     1.48810
