 16
no_name:-346.562560609018
C     -0.90870     1.12753    -0.86048
H      0.39205     2.21214     2.02940
H     -0.95094    -2.25610    -0.04616
C     -0.81232     2.08185     0.12514
C     -0.17928    -0.06999    -0.39644
H     -1.32968    -1.46913    -1.67852
C      0.43777     0.30449     0.88939
H      2.35241    -2.30919     0.06737
H     -1.49790     1.18961    -1.77557
H     -1.29214     3.06162     0.10408
C      0.04346     1.60838     1.19000
H      2.18127    -0.53327     2.04642
C      1.70968    -1.42596     0.07949
C     -0.65014    -1.53751    -0.82069
C      0.73472    -1.12982    -0.93929
C      1.56451    -0.54920     1.14538
