 13
no_name:-344.638540521269
C      1.57717     0.61242    -1.13110
C     -1.93619    -0.32791    -0.57510
C     -0.39405    -0.39443     1.28905
C     -1.81798    -0.32764     0.96040
C     -0.99038     0.23822    -1.43874
C      1.86364     0.25526     0.15993
C      0.76759    -0.13341     0.99439
H     -2.38762     0.41927     1.53108
H      2.36466     0.88975    -1.83725
H      2.89954     0.23030     0.51238
C      0.20845     0.50793    -1.51773
H     -3.07353    -2.24624     0.01603
C     -2.55440    -1.29025     0.05876
