 15
no_name:-345.968951733286
C     -1.07043     0.14957    -0.07255
C     -1.81200     0.99526     0.71470
H      2.68874    -2.02587    -0.20860
H      2.98361    -0.63185    -1.42853
H     -2.18536    -2.04601    -2.84051
H     -1.27545     2.37670     2.42337
C      2.39254    -1.04634    -0.60296
C      1.37945    -0.39578    -0.10439
C     -1.50808    -0.68479    -1.12884
C      0.34239     1.22623     1.50004
C     -1.86448    -1.40932    -2.03813
C     -0.93932     1.65410     1.67894
H      1.23216     1.52142     2.05346
C      0.34107     0.25848     0.39403
H     -2.88776     1.14785     0.62869
