 14
no_name:-382.565414131795
H     -1.65933    -1.39198    -2.58042
C     -1.06689    -1.11384    -1.70247
C     -0.04137    -1.97214    -1.20800
C      0.25846    -1.80124     0.12023
H      1.08158    -1.81286     2.18357
C     -0.22209     1.84724     0.39724
C     -1.15475     0.18093    -1.22458
C     -0.14341     3.01797     0.91387
C     -0.05370     4.21337     1.42177
C     -0.34594     0.58739    -0.07556
H      2.34613    -1.25855     0.95400
C      0.24042    -0.52570     0.59490
C      1.27936    -1.40820     1.18345
H     -1.77849     0.92613    -1.72209
