  9
no_name:-229.933560388903
C     -0.75759    -0.99847    -0.10113
H      2.64796     1.23263    -0.10316
H     -1.57655     0.72644     0.96652
H     -1.67105    -1.59868    -0.10153
C      0.50887     0.98374     0.44150
C     -0.69537     0.29019     0.48742
C      1.73780     0.63165    -0.10498
C      0.47261    -1.35226    -0.64890
C      1.52165    -0.63633    -0.63625
