  9
no_name:-304.623016617113
C      1.13488    -1.25002     2.53287
C      0.20430    -0.22725     0.63706
C     -0.82043     1.36231    -2.77615
H      1.42956    -1.69231     3.47494
C     -0.48582     0.82668    -1.62436
C     -1.14695     1.88366    -3.90792
C     -0.17573     0.31202    -0.51449
C      0.01319    -0.59888     1.92251
C      1.46521    -0.94434     1.27972
