 12
no_name:-381.397420375008
C     -1.60182     0.63984     0.14344
H      4.65822    -2.04287    -1.35925
C      3.40942    -0.66820     0.08249
C     -2.80117     0.94803     0.15962
C      4.52594    -1.38411    -0.50412
C     -4.11465     1.28253     0.17923
C      4.86745    -0.69223     0.56338
H     -6.34040     1.85043     0.21313
C     -5.29936     1.58530     0.19697
C      2.18179    -0.33550     0.10138
C      0.90259    -0.00544     0.11633
C     -0.30637     0.31046     0.12416
