 14
no_name:-307.749925593239
C      1.12911     0.92341    -0.41023
H     -0.41889     2.48603    -0.49674
H      0.14807    -2.30907     2.90575
H      2.08728     1.44400    -0.47786
C      0.29858    -1.56072     0.64106
C      0.31566    -2.50511     1.85090
C     -1.26673     0.43493    -0.65701
H     -2.08133     0.80388    -0.01175
H     -1.75481     0.03287    -1.56065
C     -0.16917     1.51671    -0.96637
H     -0.10262     1.71617    -2.05166
C      0.88863    -0.29012     0.13961
C      0.61193    -3.13967     0.76407
C     -0.48634    -0.62885     0.02829
