 13
no_name:-307.260754724175
C      0.68528     0.31990    -0.99430
H     -3.90461     0.52382    -1.95874
H      2.76686     0.13666    -0.31596
C      1.69700     0.03863    -0.14016
H      0.76877     0.69630    -2.01370
C     -1.87926     0.21821    -0.93662
H      1.50770    -1.19160     3.22065
C     -0.60954     0.03475    -0.32763
C     -2.95196     0.38368    -1.48362
C      1.10575    -0.44404     1.12877
C      1.75678    -0.82116     2.22537
H     -1.09361    -0.71868     1.68500
C     -0.35975    -0.42174     0.93850
