  9
no_name:-229.826853288301
C      0.18253    -0.23327     1.03596
C     -0.19679     0.60244    -1.38689
H      0.61549     2.63823    -0.80265
C     -0.40168    -1.34334     0.19878
H     -1.37694    -1.70596     0.57420
C      0.35365     1.61237    -0.54926
H      0.25238    -2.23323     0.13717
C      0.47833     0.94334     0.72066
C     -0.51284    -0.60039    -1.11353
