 16
no_name:-346.585809945131
H      3.30021     2.76755     0.58797
C     -1.77906    -1.98059    -0.83125
C     -0.99491    -0.93935    -0.30426
H     -0.36923     1.59626     1.80839
H     -3.08527    -3.66749    -1.67461
C      0.28165    -0.53697    -0.73077
C     -2.47747    -2.87583    -1.27837
C      0.69154     0.54636     0.07883
C     -0.38876     0.81748     1.04743
H      2.61125     0.89148    -0.82331
H     -2.34313    -0.14939     1.35085
C     -1.39537    -0.06659     0.82053
H      0.85275    -0.98304    -1.54336
C      1.93495     1.24408    -0.03611
C      2.33093     2.28674     0.73950
H      1.69942     2.68197     1.53933
