 15
no_name:-308.49879236542
H      1.56511     1.88652     2.24145
H     -1.00620     0.73329    -1.92652
C      0.71533     0.83272    -0.57006
C      1.19400     2.09798     0.02711
H     -2.25805    -2.40716     0.16581
H     -2.51224    -1.53762    -1.47285
C     -1.93648    -1.64804    -0.55116
H      1.25677     3.12730    -0.33128
C     -0.84338    -0.83478    -0.28593
H      2.07985    -0.46477     0.60747
C     -0.02801    -0.87083     0.87819
H     -0.10586    -1.63505     1.65460
C     -0.39033     0.29695    -1.13732
C      1.11528     0.07384     0.68940
C      1.35121     1.50955     1.23857
