 11
no_name:-305.933666365135
C      0.50532    -0.42824     0.89858
H      2.37737    -0.91205     3.44639
H     -3.57839     1.28036    -3.52113
H      2.75715    -0.32638     0.58991
C     -0.37016    -0.09339    -0.09059
C      1.74246    -0.75751     2.57650
C     -2.07305     0.64084    -1.90708
C     -2.87529     0.98338    -2.76559
C     -1.18655     0.26217    -0.95258
C      1.89058    -0.23158     1.26413
C      0.67071    -1.44559     1.95600
