 10
no_name:-342.625938860363
C      0.96943    -0.99984     0.07746
H     -0.39480    -2.80028     0.18390
C      1.57796     0.08935    -0.00606
C     -0.23072    -1.73057     0.06750
C     -1.15949    -0.69654    -0.13889
C     -1.41420     0.51558    -0.31082
C     -0.56747     1.64654    -0.38412
C      0.25972     2.16270     0.69454
C      1.10853     1.40770    -0.21340
C      0.43604     1.89476    -1.40708
