 18
no_name:-385.253294388051
H     -0.68546    -0.66489    -2.73159
H      2.81658    -1.73674    -0.42113
H      1.47338    -1.83964    -2.50858
C      1.08125    -1.25352    -1.67331
C     -0.11377    -0.60557    -1.80136
H      2.06209    -0.45351     1.54957
C      1.86801    -1.19357    -0.44991
C      1.46122    -0.49136     0.63680
C     -0.62283     0.15999    -0.70133
C      0.18534     0.23007     0.57851
C     -1.73514     0.90581    -0.47291
C     -1.58469     1.41114     0.92867
H     -2.32380     2.04992     1.41826
H      0.52628     2.35069     1.72259
H     -2.57155     1.11085    -1.13948
H     -0.88410    -0.06570     2.74466
C     -0.77364     0.40558     1.76569
C     -0.09273     1.57181     1.27224
