 11
no_name:-231.179609097964
H      0.99720     3.25449     1.08898
C     -0.84989    -1.91922    -0.47159
C      0.46730     1.30692     0.38359
C     -0.24931     0.29151     0.32708
C      1.25343     2.41128     0.44015
C     -0.63851    -2.97523    -1.20766
H     -0.05233    -3.82662    -0.83716
H      2.16199     2.48820    -0.16503
H     -1.97438    -0.83744     0.91816
C     -1.07430    -0.84076     0.28469
H     -1.03717    -3.05380    -2.22782
