 16
no_name:-234.302889153853
H      0.51864     2.88783    -0.18526
H      0.79697    -2.08450    -0.57310
H     -2.38653    -0.80602     0.57266
H     -0.07809     2.26460     1.37691
H     -0.36751    -1.41751    -1.75901
C     -0.32996    -0.30879     0.18007
C      0.49232     0.74121    -0.03555
C      0.29450    -1.16153    -0.91288
H      2.31778    -0.14230    -0.97397
H     -1.64029     0.26085     1.79279
C     -1.45107    -0.58992     1.11939
C      1.24804     0.05660    -1.16352
H      1.15313     0.52564    -2.15889
H     -1.23840    -1.47721     1.74233
C      0.65163     2.09262     0.57010
H      1.66410     2.22528     0.99199
