  9
no_name:-267.229045735943
C      0.57860    -0.28788    -1.48586
H      1.64712    -0.25488    -3.51227
C     -1.29810    -0.86955     0.19006
C      0.17845     0.56900     0.91098
C     -0.99728     0.29729     1.64069
C     -1.45104    -0.98180     1.52490
C     -0.03642    -0.32522    -0.21982
H      0.82152     1.45069     0.93234
C      1.14921    -0.26778    -2.56023
