 17
no_name:-309.714566245083
C     -0.79045     1.01172     0.77621
H     -2.41089    -0.49607     0.43201
H      1.13065    -2.39646    -1.82267
C      0.31741     0.13096     0.36044
H      4.71927    -1.61901     0.42190
H      1.26964     0.26100     0.88420
C      1.31551    -1.67077    -1.02396
H     -2.13472     2.58225    -0.11218
C     -2.23673     0.52981     0.76969
C      2.60357    -1.64681    -0.46925
C      0.25434    -0.83213    -0.62568
H     -0.53217     1.70003     1.58583
H     -2.87733     0.84746     1.59757
H     -1.66851     1.23358    -1.27259
C     -1.80123     1.54743    -0.23300
C      3.73153    -1.62785     0.00180
H     -0.69058    -0.97739    -1.16137
