 19
no_name:-385.90860096422
C      1.08605    -0.06537     1.97312
C      0.85036    -1.41454     2.10366
H     -1.12633    -1.81641    -1.47098
H      1.68966     0.56663     2.62425
H     -0.34891    -2.87183     0.83927
H      1.08010     2.39617     0.89345
H     -1.50976    -0.08081    -3.04146
C      0.44347     0.38311     0.76236
H      1.22293    -2.06250     2.89841
H      0.36962     3.21301    -1.18904
C      0.13167     2.16464    -0.98328
C      0.01995    -1.85499     0.98437
C     -0.23991    -0.78768     0.16921
C     -1.16397    -0.81237    -1.01292
H     -2.21283    -0.73322    -0.64440
C     -1.03688     0.21210    -2.09705
C      0.55012     1.68138     0.25454
C     -0.52148     1.47299    -2.05399
H     -0.62869     2.05972    -2.97287
