 14
no_name:-270.462132281321
H      0.15865     2.80899     0.35688
H     -1.46532    -2.35296    -1.10694
C     -0.42082    -1.62905     0.59576
H      1.68356     2.22025    -0.32292
H     -0.05820    -1.85911     1.60383
H      0.97336     0.64014     1.75647
H     -1.29116    -3.55064     0.31779
C      0.55017     0.70481     0.75180
H     -0.22670     2.17045    -2.26036
C     -0.12166    -0.29113     0.10642
C     -1.09349    -2.55986    -0.09866
C      0.63433     1.93002    -0.12005
C     -0.08944     1.52466    -1.39308
C     -0.49077     0.26422    -1.20293
