 13
no_name:-195.018754317086
H      1.66934    -0.16728    -1.55811
H     -0.21075    -2.49522    -0.55836
H     -1.91971     0.42889     0.50823
C     -0.12147    -0.30179    -0.25502
C     -0.07661    -1.52795    -1.05805
H     -0.47919     1.75924     2.21210
C     -0.26399     1.78280     1.12884
C      1.19826    -0.72631    -0.74031
H     -0.70886     2.71737     0.74290
C     -0.83490     0.58030     0.43443
H     -0.45299    -1.50398    -2.08806
H      1.91256    -1.15910    -0.02920
H      0.82712     1.84150     0.99660
