 10
no_name:-305.26211467072
C      0.47208    -0.34770     0.32744
C     -3.21148     0.54902    -0.59059
H      3.48790    -1.21862    -0.07301
C      1.77921     0.25778     0.52073
C     -4.41834     0.85027    -0.91666
C     -1.97819     0.24761    -0.26924
C     -0.78475    -0.03933     0.04396
H      2.05729     1.02991     1.25310
C      2.46546    -0.92798     0.16609
C      1.31009    -1.56111     0.63536
