 16
no_name:-346.543423958997
H      1.11270    -2.33254    -1.60109
C     -0.93428     0.48997    -1.18212
H     -1.66708     1.08181    -1.73465
C      1.05554    -1.19051     0.19376
H     -0.38732     2.71811     1.13624
C      0.67636    -1.47498    -1.08220
H     -1.70392     1.67089     1.75814
C     -0.31723    -0.67954    -1.84100
C     -0.54121     0.74663     0.07693
C     -0.70168     1.67124     1.29426
H     -0.33854    -1.82251    -3.79278
C      0.43606    -0.04594     0.81013
H      1.79307    -1.80788     0.71293
C      0.34395     0.73568     1.93250
H      0.81820     0.72267     2.91583
C     -0.63191    -1.03697    -3.09573
