 17
no_name:-347.256616481296
C     -0.31947     1.99905     1.33962
H      1.60990    -1.97030    -1.30985
H      1.09174     1.15473     2.81249
C     -0.83874     1.54272     0.04393
H     -0.73695    -1.73926    -3.00987
C      0.55648     1.08149     1.86705
C     -0.21808    -0.75185    -1.19611
C     -0.86883    -0.86499    -2.36661
C     -0.26820     0.32722    -0.21843
H     -0.60053     2.94426     1.80899
H      1.92233    -1.71434     1.34927
H     -1.54883     2.09638    -0.57110
C      0.62493    -0.00769     0.90955
H     -1.55134    -0.08441    -2.71253
C      1.21303    -1.20764     0.68960
H      0.27182    -2.77665    -0.48912
C      0.75797    -1.79265    -0.62703
