 16
no_name:-383.768304867634
H      1.05613     2.29722    -2.99353
C     -0.11550    -0.28443     1.73836
C     -0.42883     0.79650    -1.76412
H     -1.93467    -4.80126     2.40308
C      0.72950     1.58464    -2.24971
C      0.57429     1.30697    -0.80599
C     -1.07991    -2.67667     2.11653
H     -1.47641     0.58248    -1.91996
H      1.49517    -0.70254    -1.84728
C      0.92808     0.20972    -1.73057
C     -0.58611    -1.44739     1.95863
C      0.36415     0.92716     1.68855
C      0.75830     1.81356     0.57872
H      0.22814     2.77650     0.72329
C     -1.53682    -3.81315     2.26775
H      1.81685     2.09203     0.76041
