 12
no_name:-306.602197279163
H      0.58863     1.33630    -2.56009
H     -0.27376    -1.21083     3.67270
H     -1.25046    -2.19700    -4.22062
C     -0.36903    -0.57368    -2.86708
C      0.24078     0.39591    -0.71557
H      1.13690     1.64690     3.73873
C      0.35489     0.29780     1.86428
C      0.11532    -0.35094     3.13006
C     -0.83686    -1.43454    -3.58891
C      0.18308     0.45059    -2.05187
C      0.70117     0.83625     3.15705
C      0.30008     0.34927     0.54853
