 10
no_name:-305.25417998835
C      2.88178    -1.34403     2.39615
C     -0.79842     0.18032    -0.70336
H     -1.04266     1.44220    -2.77041
C      2.07311    -1.61976     1.26133
C      1.93329    -0.34488     2.04963
C      1.09784    -0.61018     0.89207
C     -1.28386     0.86285    -1.88092
C     -2.18267     0.28664    -1.10425
H     -3.22178     0.04529    -0.88727
C      0.15045    -0.22081     0.09639
