 17
no_name:-309.634761137254
H     -2.34735     2.94930     0.68729
H      2.02013    -2.73688     0.35822
C     -0.95477     1.45495     0.13529
C      0.32749     0.83645    -0.37350
H      1.30265     1.34367    -0.37261
H     -1.62004     0.12914     1.77630
C      0.43391    -1.58079    -0.55350
H     -0.26325    -2.41569    -0.72040
H     -0.81077     3.53604    -0.20523
H      2.54508    -1.15439    -0.27923
C      1.88555    -2.01498    -0.46477
C     -1.39290     2.70855     0.21038
H     -2.36497    -0.31240     0.19857
C     -0.12382    -0.47330     0.24036
H      2.20192    -2.49701    -1.40361
C     -1.46918     0.11074     0.68469
C      0.03728    -0.31705    -1.28936
