 16
no_name:-346.45648869331
H     -1.82816    -0.09617     3.68712
C      0.54573    -0.86403    -1.34787
C      2.64318     0.12846    -2.83059
C     -1.33495    -0.02219     1.59610
H     -0.64881     0.83299     1.58633
H      4.15263     1.51622    -3.26939
C      3.33736     1.23511    -2.59626
H     -1.89905    -1.80787     0.60455
H     -2.97755    -0.97053     2.63225
C     -2.33296    -0.08149     2.70460
C      1.48366    -0.77894    -2.34356
C     -1.22173    -0.94362     0.61399
H     -2.97626     0.81655     2.70300
H      3.11496     1.88102    -1.74409
C     -0.26988    -0.87869    -0.42996
C      2.19922    -1.06666    -3.42440
