 12
no_name:-306.562330898695
H     -0.12411     0.67535     3.02598
C      1.89202    -2.09561    -2.96366
C      2.45977    -2.74646    -3.91736
H     -2.37046     0.49414     1.81150
C      0.17768    -0.11164    -0.11310
C     -0.38894     0.55788     0.83442
C     -0.28763     1.28352     2.12874
C      1.31091    -1.42982    -2.00279
H     -2.00661     2.06188     0.90180
C      0.74627    -0.77621    -1.06549
C     -1.61079     1.17694     1.41358
H      0.24205     2.24319     2.11747
