 10
no_name:-155.657630224716
H      0.36467     1.72044     0.27654
H     -0.94418    -0.53138    -1.45936
C     -0.82538     0.05481    -0.54677
H     -0.00849    -0.35105     1.51281
C      0.38557     0.83334    -0.36163
C      0.25540    -0.50952     0.45447
H     -1.74685     0.36171    -0.04542
H      1.30769    -2.24250     0.79752
H      1.15038     0.81607    -1.13974
C      1.02132    -1.58571    -0.05948
