 11
no_name:-268.566255241914
C      0.98881     1.04313     1.30904
H     -0.45175     2.22875     0.23876
H     -0.66378    -1.84744    -3.24365
C      1.86708     0.93571     2.14243
H     -2.81765    -2.43404    -0.96641
C     -1.04627    -0.75068    -1.09028
H      2.64981     0.83437     2.86981
C     -0.56357     0.22285    -0.38433
C     -0.05739     1.20622     0.34817
C     -1.09024    -1.60359    -2.27244
C     -1.97875    -1.84545    -1.33304
