 12
no_name:-306.620110670166
C      0.24919     0.70116    -0.08617
H     -2.75510    -1.05755    -3.43858
C     -1.27374    -0.36628    -1.63813
H     -1.87503    -2.55485    -0.76979
H      2.86327     0.79130     4.04357
C      0.90600     0.72961     0.94924
C      1.63739     0.75094     2.10530
C     -1.81085    -1.67374    -1.40478
C      2.28798     0.77676     3.13785
H     -0.46111     1.55570    -1.94311
C     -0.50362     0.68396    -1.28165
C     -2.17601    -1.04715    -2.51696
