 12
no_name:-194.35392290837
H     -0.05695     1.19781     1.31290
H     -1.51914    -2.87851     1.60327
C     -0.95676    -2.29407     0.89992
C     -0.32041    -1.64207     0.10049
C      0.02962     0.64565    -0.77214
H      0.25590     2.55559     0.20578
C      0.46396     1.48776     0.37537
H      1.50870    -0.91389    -0.63908
C      0.42742    -0.80466    -0.85037
H     -0.81308     0.97339    -1.38953
H      1.54432     1.37181     0.57889
H      0.26714    -1.19472    -1.87071
