  8
no_name:-229.137561561783
H      1.53353     0.59797     0.37793
C     -0.52126    -1.18097    -0.61045
C     -0.02278    -1.46812    -1.89984
C     -0.53041    -0.33619     0.56294
H      0.21677     1.60302    -0.35696
C     -0.90073     0.05033     1.75075
C      0.55836     0.58504    -0.12679
C      0.52062    -0.32987    -1.31153
