 17
no_name:-309.767688926062
C      3.23793     1.64934     1.24617
H     -1.21962    -2.49540    -1.33552
C      2.06232     1.15446     0.95765
H     -2.45303     0.13064     0.97622
H      0.85938     0.12583    -1.47630
C     -1.40398     0.13454     0.67107
H      3.58791     2.60160     0.82224
C      0.58415    -0.31899    -0.50235
H     -0.51239     1.51633     2.19299
C     -0.90051    -0.57868    -0.39884
H     -2.70437    -1.53830    -1.08045
C      0.86683     0.64346     0.65581
C     -0.38581     0.87230     1.32339
H      1.17348    -1.24972    -0.40971
C     -1.63666    -1.47102    -1.33841
H     -1.56108    -1.11159    -2.38195
H      3.92449     1.14817     1.94363
