 10
no_name:-230.43619975915
C     -0.41577     1.69890     0.15056
H     -0.69398     2.74675     0.19245
C     -0.27596     0.61126     1.13684
C      0.77860     0.94780    -0.27806
C      0.12449    -0.33543     0.06941
H     -0.29847    -2.38559     0.43383
H      0.67801    -2.06606    -1.03150
C     -0.94371     0.50045    -0.52724
H      1.42587    -1.93242     0.58870
C      0.50552    -1.76688     0.01166
