 12
no_name:-306.588126233103
C      0.91670     0.94959     0.04382
C     -1.32483    -0.43589    -0.96508
C      0.19435     1.48311    -1.25042
C     -0.73371     0.70599    -1.57104
H      2.06331    -0.21219     2.20127
H     -2.20283    -0.94542    -1.36730
C     -0.70837    -0.88835     0.17242
C      0.50086    -0.25337     0.73920
H      0.82704    -1.61125     2.34488
C      1.31304     2.06205    -0.51386
H     -1.09969    -1.76599     0.69453
C      1.17441    -0.71802     1.82243
