 13
no_name:-344.663637468611
H      2.12097     0.25643     2.34035
C      1.36988     0.19530     1.55103
H     -0.50623     0.65172     2.69271
C      0.41687    -0.15746    -0.48947
C      0.03607    -0.39881    -1.82469
C     -1.27914    -0.00950    -2.05515
C     -0.65376     0.24913     0.51521
C     -1.87556     0.37336    -0.12011
C     -2.30653    -0.18277    -1.23502
C     -0.01518     0.43524     1.74561
H      0.72877    -0.74970    -2.59110
C      1.64561    -0.10598     0.20796
H      2.63224    -0.21278    -0.24130
