 17
no_name:-309.701904751248
H      3.23792     0.58784     0.98497
C     -1.75246    -0.60718    -0.95813
H      0.71853    -0.82745     2.04033
C      2.20245     0.73599     1.34050
H      1.29265     2.50817     0.01122
H     -2.03402    -2.63707    -0.37805
H     -3.30916    -1.93364    -1.55771
C     -2.40130    -1.79111    -0.96594
H      1.71025    -1.36504     0.64690
H     -2.44328     1.53556    -1.09318
C     -0.71864     0.20504    -0.53550
H      2.25123     1.12218     2.37438
C      0.43694     0.41361     0.20826
H     -1.42434     0.98257    -2.52382
C      1.24851    -0.49157     1.13461
C      1.28671     1.48688     0.40073
C     -1.71451     0.80328    -1.47614
