 11
no_name:-231.100229965313
C     -0.88683     1.31402    -0.45444
H     -1.18603    -0.68029     0.27426
C     -1.31438     2.33184    -0.95434
H      1.60668    -0.13509    -1.11953
C      1.01069    -0.38533    -0.24099
H     -1.69672     3.23622    -1.38888
H      2.34837    -1.39607     1.21450
C     -0.40486     0.08652     0.13167
H      0.65199    -2.13646     1.18301
C      1.28920    -1.26312     0.97014
C      0.75578     0.12072     1.08330
