 11
no_name:-268.562861762138
H     -0.98440    -0.69316     2.19846
H     -1.66631    -2.43903    -1.35461
C     -0.24819    -0.64563    -1.23178
C     -1.00135    -1.59692    -1.29963
C      0.44454     0.88142     1.21220
C     -0.30513     0.14478     2.03988
C      0.96163     1.17730    -0.09916
C      0.63356     0.46679    -1.20675
C      0.40939     1.23212     2.59688
H      1.07151     0.75999    -2.16843
H      1.65068     2.02217    -0.18835
