 13
no_name:-307.211275122486
C      0.11246    -0.71485    -0.69020
C      0.38436     0.59197    -0.61755
H      1.33079     5.39805    -0.34555
C     -0.44914    -1.93776    -0.16085
H     -0.63024    -2.42357     1.89338
C      0.62240     1.82162    -0.54997
H     -1.33888    -3.64347     0.78074
C      0.88634     3.14152    -0.47382
C      1.12969     4.34570    -0.40088
C     -1.18339    -2.56832     0.95026
H     -2.16105    -2.07418     1.07911
H      0.47230    -2.60761    -2.19194
C      0.15729    -2.01053    -1.33828
