 10
no_name:-230.492578311166
C      0.35601     0.19667    -1.09167
C     -0.70409    -0.07873    -0.16345
H      1.19230     1.22646     0.75235
C      0.61542     0.58100    -2.34922
H      0.39504    -1.82473     0.68878
H     -0.28806    -0.65973     1.93790
H     -1.66103     0.44163    -0.07633
C      0.78959     0.33220     0.27036
C      0.05190    -0.80591     0.90576
C      0.87576     0.90570    -3.55333
