 11
no_name:-231.004023008751
C     -0.94377    -0.02551    -0.09061
H     -1.63956     1.20531     1.53772
H      2.23543     0.11753    -1.35061
C      0.36116    -0.28516    -0.44729
H      2.21549    -2.03900     0.02786
H      1.95804     1.05534     0.14553
C      1.80321     0.07167    -0.32573
H     -2.89750     0.81849     0.19454
C     -1.88587     0.70899     0.59510
C     -0.60046    -1.11607    -0.98733
C      2.52798    -1.02808     0.35574
