 10
no_name:-155.739378343719
H     -0.55210     1.54372    -1.30698
C     -0.03490     0.50010     0.58481
H      0.90528    -1.37862     1.30672
C     -0.67505     0.59720    -0.76710
C      0.11622    -0.98970     0.65204
H     -0.77956    -1.62915     0.59792
H     -1.64111     0.09874    -0.94739
H      0.38753     1.27806     1.21939
C      0.55706    -0.23185    -0.56379
H      1.54203    -0.14965    -1.02137
