 13
no_name:-195.002257153329
C      0.75862     0.68942     0.64010
H     -1.25349    -1.28752     0.07767
C     -1.53103    -0.29761    -0.31308
H     -0.61201     1.63945    -0.76980
C      1.37000    -0.66176     0.41911
H     -2.31716     0.11255     0.34246
H      0.79115    -1.57730     0.60446
C     -0.34423     0.64596    -0.38013
H     -1.96850    -0.44365    -1.31472
H      1.72839     0.65145    -1.48631
H      2.43195    -0.76035     0.67500
H      1.16820     1.54517     1.17639
C      1.05054     0.22375    -0.74786
