 10
no_name:-193.119987859133
C     -0.68496     0.40838     1.34381
C     -0.15146    -1.04100    -1.78246
H      0.22222    -1.40839    -2.73984
C      0.52213     0.93599     1.50247
C      0.66809    -0.29193    -0.93276
H      1.19643     1.51534     2.13177
H     -1.18368    -1.27702    -1.51033
C      0.29232     0.21231     0.28794
H     -1.68381     0.25229     1.74427
H      1.69660    -0.08005    -1.24750
