 19
no_name:-348.438722791733
C      0.65801     2.18937    -0.37092
H      1.56721    -1.17567    -1.98545
H     -1.61151    -3.24239     0.17673
H      0.06259     4.18128     0.06240
C     -0.94155    -2.46712    -0.19838
C      0.72281    -1.34160    -1.31507
H      0.00600    -1.22105     2.13719
C     -1.02171    -1.02399     0.22487
C      0.11115    -0.37930    -0.56421
C      0.06866    -2.62767    -1.08502
C      0.95214     3.61199    -0.25614
H      0.36232    -3.56267    -1.56583
H     -0.94102     0.28098     1.96957
H      1.28875     4.03035    -1.21986
C      0.42221     0.99914    -0.47900
C     -0.92906    -0.79584     1.74054
H      1.74929     3.80094     0.48366
H     -1.77454    -1.27110     2.26254
H     -1.97750    -0.59317    -0.13639
