 15
no_name:-308.495492099491
H      1.51918     0.94197     0.84644
C     -1.02369    -1.42388     0.92233
C     -1.19007    -2.42077     1.82913
H     -0.29818     2.45104    -2.59006
H     -1.46684    -4.10924     3.36293
C      0.51877     1.19421    -1.05263
C     -1.33288    -3.32105     2.64630
C      1.72370     0.81173    -0.22875
C     -0.87634    -0.51320     0.09432
H     -1.58303     0.78316    -1.43150
H      1.97466    -0.25174    -0.37364
H      1.50621     2.72802    -2.18862
C      0.58015     2.18075    -1.99745
C     -0.71332     0.49647    -0.82852
H      2.60123     1.41773    -0.49420
