 11
no_name:-305.900379854736
C      1.62213     1.28140    -0.56338
C     -0.30889     0.24529    -0.44080
C     -2.45721    -1.21295    -0.05927
H      1.05804    -1.55819     1.44533
C     -1.47819    -0.51938    -0.25780
H     -3.33306    -1.81342     0.09982
H      2.67591    -0.61075     1.28285
C      1.15053     2.15117    -1.41098
C      1.04201     0.10680     0.14531
C     -0.00139     1.35198    -1.19307
C      1.62584    -0.73411     1.00640
