 10
no_name:-267.900069530924
H     -1.03118     0.36323     2.71886
H     -1.33699    -2.63063    -2.86001
C     -0.22488    -1.01846    -1.62008
C     -0.81608    -1.88471    -2.28828
C      0.59236     1.09486     1.19025
C     -0.20049     0.89018     2.24742
C      1.01164     0.81167    -0.16516
C      0.41679    -0.09949    -0.92391
C      0.81079     1.87298     2.36878
H      1.86206     1.39407    -0.55052
