 14
no_name:-307.832960369066
H      0.52029    -1.16661     1.59888
H      0.55020     1.71248    -1.40385
C     -2.96809     1.23048     0.97728
H      1.65281    -2.46188    -1.21575
H     -3.99666     1.45728     1.18499
H      1.34923     1.74608     1.51799
C     -1.80407     0.97326     0.74585
C      0.58006     0.91966    -0.65501
C      0.56595    -0.45216     0.77569
H      1.66594    -1.16516    -2.56843
C      0.98442    -0.53459    -0.67242
C     -0.46042     0.65979     0.45863
C      1.45882    -1.43307    -1.52933
C      0.87972     1.04161     0.83807
