 15
no_name:-345.908195631076
C     -0.45755    -0.75923    -0.45042
C      0.45384     1.65952    -0.42669
H      2.17658     6.23277    -0.37170
C     -0.96049    -2.10031    -0.44853
H     -0.90515    -2.30111     1.78303
C      0.88817     2.80953    -0.40963
H     -0.16383    -4.18650    -0.61378
C      1.36846     4.08557    -0.39661
C      1.79643     5.22864    -0.38072
C     -1.16404    -2.84086     0.86877
H     -2.05357    -3.47205     0.94352
H      0.96959    -3.01030     0.23861
C     -0.02246     0.38517    -0.43626
H     -1.69105    -2.31536    -1.23721
C     -0.05612    -3.25956    -0.04427
