 16
no_name:-383.868124423292
C      0.07893    -1.53904    -0.32406
H     -1.90577    -0.97255    -1.47352
H      2.97756     3.86717    -0.91737
H     -0.91586    -0.26174     2.70323
C     -0.79157    -0.56907     1.66432
H      0.69331    -2.16441     1.80914
C      1.72444     1.95888    -0.76934
C      2.38642     2.97343    -0.84990
C      0.93025     0.78947    -0.70126
H      0.29698    -2.51042    -0.78672
C     -1.42498     0.11807     0.50868
C      0.02220    -1.54208     1.21522
H     -2.41097     0.58822     0.58247
C     -1.12730    -0.71578    -0.74713
C     -0.50089     0.62851    -0.58297
C      1.20672    -0.50426    -0.42545
