  9
no_name:-192.490167527691
H      0.35806     2.81292     0.40739
C      0.16277     1.77917     0.12666
C     -0.28859     0.59748     0.77220
C      0.15512    -1.52077    -0.74862
H      0.25466    -1.77479    -1.80647
C     -0.06255    -0.26051    -0.38061
H      0.26871    -2.31502    -0.00739
H     -1.13172     0.51764     1.47879
C     -0.23292     1.09456    -1.01392
