 14
no_name:-195.594531893884
C      0.65140     0.46109    -0.36358
C     -0.33719     0.67655     0.83263
H      0.39117     1.15705    -1.17834
H     -1.76724    -1.09410     0.90757
C     -1.27782    -0.38727     0.22008
H     -2.05186     0.06940    -0.41713
H      0.11432     0.32801     1.77566
H      0.44608    -1.72754    -0.10202
H      2.52680    -0.12240     0.69847
H     -0.25571    -1.19687    -1.66006
H     -0.72422     1.69620     0.98542
C     -0.08229    -0.90613    -0.61216
H      2.80168     1.03359    -0.75000
C      2.10726     0.47382    -0.11876
