 11
no_name:-193.761415211353
C     -0.02507    -0.97656    -0.42670
H     -2.50206    -1.05997    -0.37417
C      0.58433    -0.06977     0.59570
C     -0.69727    -0.41662    -1.66095
H      0.70790     1.79202     1.61135
H     -0.60174     1.66899     0.28747
H     -0.52581     0.11086    -2.59645
H      0.47184    -1.95651    -0.49807
H      1.40572    -0.50383     1.17906
C      0.21244     1.19230     0.84354
C     -1.49960    -0.89079    -0.76020
