 17
no_name:-384.719978249072
C     -1.91645     0.85797     0.47101
C     -0.23623    -0.55296    -0.58529
C     -0.90763     1.49926     1.23331
H     -2.95929     1.16271     0.59025
C      2.14698    -0.30431     0.02752
C      0.41194     1.12504     1.09318
C     -1.58764    -0.14444    -0.41738
C      0.78892     0.09526     0.18648
H     -1.18118     2.29252     1.93335
H     -2.36363    -0.64017    -1.00681
H      1.19182     1.61780     1.68018
H      2.91644     0.19757     0.62191
C      2.49892    -1.30793    -0.85986
C      0.13903    -1.58977    -1.49941
C      1.45979    -1.90302    -1.58337
H     -0.63171    -2.09108    -2.09271
H      3.54131    -1.61428    -0.98173
