 15
no_name:-308.434037721917
H     -0.96372     4.22924     1.55620
C      0.65793    -0.85587    -0.21433
C      1.03252    -1.92756    -0.94160
C     -0.13578     0.29461     0.04718
H      1.62968    -3.59194    -2.14666
H     -0.12960    -3.24730    -2.13391
C     -0.61152     2.15957     1.55202
C      0.87504    -2.79135    -2.12951
H      0.95729    -2.19503    -3.05357
C      0.08576     1.05891     1.21576
H      0.88609     0.71690     1.88596
C     -1.28596     3.22811     1.87356
H     -0.92122     0.59458    -0.65328
H     -2.19832     3.17151     2.48280
C      1.72793    -1.68005     0.26189
