 16
no_name:-346.454260895371
C     -1.07533    -1.03768     0.16000
C     -2.03258    -0.65314     1.16201
H      1.74146     0.78415     1.42770
H      2.29083     1.31948    -4.01208
H     -1.48791    -1.23258    -0.83659
H     -3.53747    -0.01366     2.76060
C      1.50285     0.79219    -1.90951
C      1.05042     0.47049    -0.67073
H      0.28471    -2.11560     1.58999
C      0.30200    -0.40684     0.18000
C      1.92913     1.06891    -3.03297
C     -2.82785    -0.31116     2.01197
C      0.87537     0.85702     0.75488
H      0.51781    -2.58719    -0.18517
H      0.17916     1.67238     0.99793
C      0.17282    -1.84160     0.53697
