  9
no_name:-192.455569678745
H     -0.15816    -1.81179     1.14342
C     -0.60263    -1.11238     0.42063
H     -0.22150     2.35187     0.78232
C      0.36392    -0.58441    -0.56880
H      1.37870     1.19232    -1.32260
H     -1.50850    -1.54294    -0.03001
C     -0.12956     1.31937     0.43859
C      0.67654     0.73504    -0.62224
C     -0.79390     0.25509     0.95576
