 13
no_name:-269.8712042872
C     -0.01869    -1.18201    -0.93003
H      0.07283    -2.02217    -1.62424
H      0.56286     2.44671     2.05280
C      1.02480     0.50252     0.44649
C     -1.29073    -0.73681    -0.54659
C     -0.25130     0.98352     0.85811
C     -1.40334     0.33312     0.33607
C      1.14108    -0.56555    -0.43578
H      2.12486    -0.92672    -0.74549
H      1.91905     0.99344     0.84058
H     -2.18300    -1.22893    -0.94081
H     -2.37630     0.71078     0.65855
C     -0.45624     2.08515     1.76525
