 17
no_name:-347.272653386144
H      0.62683    -1.30198     1.13121
H     -2.64245     0.46686     0.24881
C     -1.79428    -0.12787     0.61203
H      0.87392     2.22247    -2.37771
C      0.68400    -0.52871     0.36108
C      1.90269    -0.23195    -0.24518
H     -2.52960    -2.94806     2.23149
H      2.93754     0.98844    -1.70673
C      1.98007     0.75800    -1.23304
C     -2.02718    -1.02543     1.54808
C     -0.48751     0.15989    -0.00779
H      2.80235    -0.77642     0.05341
C     -0.39737     1.15143    -1.00023
C      0.82470     1.44816    -1.60775
H     -1.29918     1.69433    -1.29679
C     -2.25251    -1.91572     2.47952
H     -2.18944    -1.65977     3.54463
