 17
no_name:-384.573706683082
C     -1.04292     0.17747    -0.15254
C     -1.85106     1.09233     0.62108
H      3.72340    -0.89881     0.56801
H      1.86438    -2.11871    -1.71373
H     -1.68174    -0.91904    -3.26972
H     -1.40480     2.37404     2.37391
C      1.97308    -1.45526    -0.85900
C      1.38022    -0.51055     0.03920
C     -1.41059    -0.56014    -1.20894
C      0.24711     1.14089     1.56942
C     -1.75763    -1.29069    -2.23652
C     -1.05411     1.64880     1.63769
H      1.07856     1.39113     2.22796
C      0.31802     0.21156     0.46620
H     -2.90247     1.29983     0.42793
C      2.74518    -0.94464     0.09333
H     -2.16362    -2.30706    -2.11964
