 14
no_name:-307.810237740519
H      3.08814     2.55986     0.72931
C     -0.66367    -2.27187    -1.56111
C     -0.93691    -0.96817    -0.82661
C     -0.35835     0.02574    -0.03993
H      2.13642     1.01897     3.37527
C      0.18681     0.87395     0.64799
H     -0.52086    -3.19607    -0.97724
C      0.81805     1.88670     1.46378
H      0.15250     2.72791     1.71522
H     -0.07819    -2.24813    -2.49502
H     -2.99691    -1.46625    -1.74036
C     -1.94771    -1.50860    -1.45884
C      2.31255     2.14567     1.36813
C      1.92902     1.52411     2.43559
