 13
no_name:-232.405183320772
H     -1.49205     0.38853     0.30847
H     -0.33036     0.35379    -2.55516
H      1.53013     2.17533     2.70582
H      1.45873    -1.88916     1.27879
H     -1.60270     1.52462    -1.85272
C     -0.94014     0.66791    -1.70088
C      1.14668     0.18880     1.60044
C      1.34758     1.25246     2.18896
C     -0.87589     0.03527    -0.52742
H     -0.64427    -2.04260    -0.05039
C     -0.00567    -1.15546    -0.23872
H      0.58669    -1.41618    -1.13805
C      0.91930    -0.99695     0.93958
