 10
no_name:-267.881477449443
C      0.63563     0.47728     0.50088
H      2.49069     1.35722    -0.50431
C      1.60946     1.58453     0.11633
C     -2.14568    -1.98153    -0.81641
H      1.84623     0.83008     2.45487
C     -3.05335    -2.78477    -1.25622
C     -1.20830    -1.16149    -0.36433
H      1.19910     2.59341    -0.04633
C     -0.32582    -0.38890     0.07117
C      1.45257     0.93552     1.44517
