  9
no_name:-155.012217529004
H     -2.23911    -0.27708     0.16898
H     -0.43334     0.64503    -1.29799
H      1.16266     0.15076     1.36880
H     -1.13104    -1.72422     0.60199
H      0.60248    -0.76369    -0.98609
C     -0.11348    -0.06516    -0.52081
C      0.65842     0.71334     0.56922
C      0.72423     2.01529     0.60796
C     -1.27529    -0.78194     0.06525
