 16
no_name:-383.855016569834
C      0.85254    -0.51983    -0.58921
H     -3.01924     5.01553     0.70819
H      3.98674    -0.23170     0.70147
C      1.65139    -1.06860     0.54794
H      1.37671    -0.49621    -1.55815
H      1.10077    -1.07527     1.50194
H      2.90386    -3.15855     0.05487
C     -2.57099     1.45381    -0.11844
C     -2.77066     2.79731     0.19255
C      2.71854    -2.11698     0.30775
C     -0.38969    -0.08466    -0.50124
H     -3.91662    -0.39044    -0.52935
C     -3.04123     0.24297    -0.39179
C      3.15946    -0.92575     0.57074
C     -1.60444     0.35902    -0.37701
C     -2.89461     3.97631     0.46644
