  7
no_name:-191.256804510858
C      1.22198     0.85345    -1.52650
C      0.29750     0.70592    -0.56756
C     -0.72149    -0.59316     1.45421
C     -0.23972     0.00728     0.51285
H      2.12167     0.47501    -2.01363
H     -1.14363    -1.12524     2.28723
C      0.21612     1.83640    -1.45941
