 18
no_name:-385.244654512823
C     -0.90975     2.12943     0.19327
C     -0.36882    -0.89361    -1.91583
C     -0.51281     0.85666    -0.20384
H     -1.53611     2.70986    -0.49789
H      0.39648     2.25921     3.33684
C      0.33686     0.06928     0.68906
H     -0.00175    -2.73584    -0.88682
H     -1.44562     0.91771    -2.17644
H      1.45360    -1.72342     0.96017
C      0.19065     1.87429     2.33019
C      0.62119     0.61317     1.99642
C      0.48839    -1.74933    -1.03907
H      1.22519     0.01364     2.68622
H      1.42965    -2.02047    -1.56390
C     -0.81985     0.31262    -1.51409
H     -0.63724    -1.28641    -2.90084
C      0.81194    -1.14931     0.28392
C     -0.33876     2.74305     1.32819
