 12
no_name:-231.802540231732
H     -2.22464     1.32039    -1.30633
C      0.36403     0.12382     0.28564
H      2.63322     1.26615     2.39859
C     -1.39170     0.69755    -1.65448
C      1.25692     0.21219     1.19290
C     -1.47050    -0.81137    -1.42690
H      2.53405    -0.58104     2.67563
C      2.18154     0.30340     2.13213
H     -2.35697    -1.21626    -0.92377
H     -1.04262    -1.47533    -2.18780
C     -0.55024     0.03250    -0.64338
H     -0.91049     1.06127    -2.57048
