 12
no_name:-306.536068605478
C     -0.13919    -2.33607     3.91527
C     -0.08086    -1.63291     2.85494
H      0.18832     1.73531    -3.16285
C      0.05251     0.05935    -0.28372
H      0.02534    -0.07973    -3.58558
H     -1.47961     0.75087     1.28805
C      0.07676     0.40002    -1.54047
C     -0.79335    -0.01513     0.91149
H      1.69720     0.46927     1.27283
C      0.09757     0.69855    -2.81533
C      0.88316    -0.16343     0.90346
C     -0.02629    -0.93689     1.70936
