 13
no_name:-195.049347726456
H      1.27859     1.93595    -2.43521
H      0.79860     1.80760    -0.03457
H      0.60536     0.21243    -2.67881
H     -0.27837    -1.05745    -0.67746
H     -0.05321     0.58831     1.91262
H     -1.13552    -2.27186     1.27748
C      0.56019     0.95626    -0.68483
C     -0.30140    -0.27744     1.28373
H     -1.84961    -1.17346     2.49132
C     -0.03662    -0.20144    -0.03358
C     -0.91148    -1.45350     1.97921
C      0.82894     1.04080    -1.99840
H     -0.23901    -1.84799     2.76234
