 15
no_name:-345.90579988727
C     -0.16273    -0.91056     0.19320
H     -3.50558     3.45043     1.56045
H      5.65797    -0.78779    -1.39264
C      1.15622    -0.63624    -0.35852
H     -0.24923    -1.76248     0.88289
H      1.25011     0.21211    -1.04279
H      2.14192    -2.22760     0.63049
C     -2.76773     1.62617     0.39382
C     -3.16192     2.59361     1.01204
C      2.24825    -1.37969    -0.05826
C     -1.24689    -0.21051    -0.07586
H     -2.95579     0.18196    -1.20516
C     -2.33081     0.48846    -0.35221
C      3.54764    -1.13960    -0.57711
C      4.66973    -0.95429    -1.00719
