 15
no_name:-271.078595799502
C     -2.32400     1.78196     2.31035
C      0.42308     0.44767    -0.15035
C      0.53912    -0.94849    -0.62103
C     -1.39818     1.32932     1.48124
H      0.56531    -2.04325    -2.57873
H      1.28662    -0.35502    -2.65131
H      2.78150    -0.89715    -0.67562
H     -0.22377    -1.62715    -0.22962
H      2.06925    -2.58869    -0.59039
H     -2.34955     2.83357     2.61736
C      1.03528    -1.22115    -2.03182
C     -0.50470     0.90100     0.68245
H     -3.09707     1.12118     2.71829
H      1.17748     1.15164    -0.53172
C      1.91762    -1.54116    -0.86536
