  9
no_name:-117.633790148132
H     -0.63690     1.55028    -0.13898
H     -1.41437     0.07195     0.49597
C     -0.55261     0.76061     0.64653
C      0.79759     0.27339     0.32779
H     -0.63187     1.30450     1.60158
C      0.77939    -0.92156    -0.52831
H     -0.15422    -1.16094    -1.08564
H      1.67239    -1.04942    -1.16092
H      0.87993    -1.69799     0.26861
