 17
no_name:-272.317736895961
C     -1.23163    -0.67116     0.59105
C     -0.30639     0.28908     0.38286
H     -2.39607     0.00661     2.37512
H     -1.08620    -1.14818     2.76860
H      1.84205    -1.06346    -0.71031
C     -1.40019    -0.35623     2.06638
H     -0.69208     1.79591     1.98302
H      0.49797     0.60929    -2.99598
C      0.44321     0.01214    -2.08158
H     -0.22612    -0.85033    -2.14906
C      0.50963     0.73648    -0.76024
H      2.58985     0.39337    -1.55464
H      0.67848     1.81901    -0.79946
H      0.61414     0.63701     2.38588
H     -1.69705    -1.41729    -0.05963
C      1.67720    -0.11785    -1.23444
C     -0.32981     0.76489     1.82848
