 11
no_name:-343.361201567954
C      3.04981    -0.11676    -1.24839
C     -0.71831    -0.17533     0.03559
C      4.04043     0.62927    -0.71313
C     -3.17071    -0.23140     0.86951
C     -4.32609    -0.25822     1.26260
C      4.99400     1.33052    -0.21343
C      0.56029    -0.14778    -0.39816
C     -1.88423    -0.20146     0.43190
C      1.72711    -0.12011    -0.79171
H     -5.34337    -0.28154     1.60919
H      3.26779    -0.77891    -2.10370
