 11
no_name:-268.49817357066
C     -0.69274     0.95435    -0.68452
C      0.22434     0.23459     0.10410
H     -0.33749    -2.02152     0.41201
H      1.98193    -0.77163    -1.03969
H     -0.17644     0.23487     2.39523
H     -2.17364     2.14108    -1.96128
C      1.52394    -0.58393    -0.06724
C      0.48180    -0.09787     1.59110
C     -1.47953     1.58107    -1.36285
C      0.36759    -1.21067     0.61750
C      1.67248     0.51362     0.93223
