 16
no_name:-383.820589137917
C     -0.01341    -1.57790    -0.13593
H     -2.85279     3.68961     0.64429
H      2.53270     0.43573    -1.69370
C      1.69152    -0.20476     0.46586
H     -0.49416    -2.55475    -0.03678
H     -0.03159    -0.44982     1.97763
H      3.51310    -1.76728     0.37222
C     -2.15656     1.66137    -0.15581
C     -2.53028     2.73741     0.26783
C      2.59051    -1.27886     0.07547
C     -0.73086    -0.31412    -0.15941
H     -2.29173    -0.00227    -1.52888
C     -1.74158     0.39945    -0.66962
C      2.11470    -0.20999    -0.92673
C      0.22959    -0.48133     0.91683
C      1.41144    -1.47386    -0.75316
