 17
no_name:-347.237632374267
H      0.77521     3.32414     2.37501
C      0.00092     0.60673     0.58054
C     -0.06487    -1.45804    -1.44785
H      1.38843    -2.46891    -0.14781
C      0.03052     1.55666     1.51536
C     -0.86897    -0.24120    -1.55525
H     -0.72934    -2.32978    -3.28397
H     -1.50723    -0.12869    -2.43608
C      0.81046    -0.61016     0.69467
C      0.77497    -1.57008    -0.25583
C     -0.84318     0.72620    -0.61207
H      1.44679    -0.71775     1.57578
C      0.06438     2.48816     2.42923
H     -1.45404     1.62562    -0.71571
H     -0.62549     2.48427     3.28424
H      0.50921    -3.33095    -2.30584
C     -0.09654    -2.42592    -2.39806
