  7
no_name:-228.464332382582
C      0.59171    -0.07456     0.88957
C     -0.62702    -0.79324     0.57800
C     -0.56287    -0.64291    -1.05133
C     -1.05850     0.40194    -0.25572
C      0.56987     0.29759    -0.58292
C      0.02258     1.36011     0.19010
H      1.39065    -0.14848     1.62991
