 14
no_name:-382.633513753653
H     -1.54826     1.32116     2.78999
C     -1.07021     0.97808     1.86969
C     -0.52181     1.98171    -0.46524
C     -0.55174    -0.23226     1.63748
C      1.29655    -1.43396     0.15710
C      0.08524     1.62940    -1.71399
C      0.67623    -0.78096    -1.03656
C      0.50131     0.36154    -1.63053
C      0.04583    -1.13732     0.92146
H      0.18198     2.29626    -2.57374
C     -0.89432     1.77184     0.69030
H      2.22843    -1.96013     0.36131
H     -0.39952    -2.89058    -0.65412
C     -0.03775    -1.90637    -0.35841
