 11
no_name:-343.296001426226
C     -0.43166     0.34588    -0.45229
C     -2.78382     1.46494    -0.30356
H      4.56254    -2.79610     0.63407
C     -3.89069     1.99516    -0.23436
C      2.67957    -1.57716     0.17437
H     -4.85653     2.45927    -0.16922
C      3.67659    -2.22531     0.42291
C     -1.57536     0.88421    -0.38395
C      1.51476    -0.84903    -0.06879
C      1.01774     0.44363    -0.02183
C      0.33197    -0.91241    -0.78965
