  7
no_name:-191.24351630265
H      0.39675     1.61029     2.25842
C     -0.14089    -0.31782    -0.37127
C     -0.65174    -1.17650    -1.21322
C      0.35965     0.52209     0.44368
C     -1.14570    -2.03538    -2.03878
C      0.87742     1.39379     1.29516
H      1.80706     1.93302     1.06959
