 10
no_name:-193.162642334805
C     -0.30909    -0.64623     0.65096
H     -2.45557    -0.57061     0.75082
H     -0.98721     0.94670    -0.64762
C      1.14705     0.82997    -0.71299
C     -0.10805     0.41444    -0.26405
H     -1.63922    -1.88300     1.80257
H      3.20286     1.52835    -1.46593
C      2.24385     1.19843    -1.11361
C     -1.53784    -1.05787     1.09438
H      0.58603    -1.16053     1.01862
