 15
no_name:-345.967790896127
H      3.10994     2.33920    -1.56417
C      1.75438     1.29863    -0.35176
H      3.73813     1.78740     0.11352
C      0.14852    -0.61560    -0.38023
C      0.57088     0.75946    -0.08621
H      0.76690    -1.37115    -0.86020
C     -1.95423    -1.92008    -0.02485
H     -3.29457    -3.77236    -0.13655
C     -2.67089    -2.90025    -0.08075
H     -2.57663     0.68987     1.06928
C     -1.14369    -0.75623     0.05667
H     -0.56984     2.46307     0.90123
C      2.91590     1.83093    -0.61149
C     -0.57504     1.42834     0.56296
C     -1.58580     0.52830     0.64506
