 15
no_name:-308.464206653658
C      1.07561    -0.31800    -0.81436
H      3.05298    -0.02846    -0.00300
H     -0.89012     0.48007     1.81620
C     -1.40271    -0.93494    -0.71019
H     -1.57768     1.94516    -0.31088
C     -0.34213    -0.01481    -0.39693
C      1.32148     0.62172     1.35040
C     -0.17181     0.68162     1.01280
H     -3.09059    -2.38785    -1.23186
C     -2.30119    -1.70215    -0.98874
C      1.96901     0.04940     0.11145
C     -0.63024     1.42407    -0.15795
H      1.29792    -0.76507    -1.78517
H      1.71570     1.62310     1.59901
H      1.50378    -0.01909     2.23167
