  8
no_name:-266.674077914511
H      3.58594     0.06152    -2.65145
C      1.67576     0.01426    -1.36439
C     -1.55931    -0.05457     0.82470
C     -0.47552    -0.03370     0.09169
C      2.69143     0.04215    -2.05519
C     -2.61983    -0.08093     1.55235
C     -3.69062    -0.10364     2.29885
C      0.56305    -0.00628    -0.61403
