 13
no_name:-307.246240767506
C     -0.11313    -2.11011    -2.68418
C     -0.13504    -2.51175    -3.84023
C     -0.07216    -1.25769    -0.23191
H      0.40102     3.73247     1.45298
C      0.00471     3.07664     2.24592
H     -0.14912    -2.86709    -4.85332
C     -0.01291     1.68568     1.81976
C     -0.09264    -1.66267    -1.40238
H     -0.06799    -1.59496     1.86867
H      0.63053     3.21130     3.14426
C     -0.03195     0.51408     1.46409
C     -0.05183    -0.83033     1.07974
H     -1.01194     3.42906     2.49367
