 12
no_name:-156.996284427824
H     -0.90641     0.55788     1.51814
H     -1.71156    -0.09790    -0.76637
C     -0.71428    -0.43861    -0.44636
C      1.07352     0.20406     0.59984
C     -0.33725    -0.26010     1.04789
C      0.50376     0.44509    -0.82278
H     -0.40120    -1.14481     1.70082
H      0.21427     1.49742    -0.97445
H     -0.58166    -1.48052    -0.77958
H      1.51967     1.06354     1.12454
H      1.11881     0.12976    -1.68028
H      1.80024    -0.62409     0.61428
