 16
no_name:-309.168899114683
H     -0.14153     2.35360     0.21722
H      0.41396    -0.75688    -2.68411
C     -0.09711     0.79426    -1.33344
H     -3.07084     0.58347     1.06405
H      1.47437    -2.21494    -0.97329
C     -0.20414     1.26937     0.05881
C      0.48446     0.32246     1.16965
C      1.13261    -0.89627     0.65024
H     -0.38250     1.48952    -2.12808
H      0.97388     0.81975     2.01685
C      1.00059    -1.28771    -0.63971
H     -2.27009    -0.51572     2.35318
H      1.76602    -1.46395     1.33790
C      0.38080    -0.43564    -1.63951
C     -2.15882     0.17523     1.51133
C     -0.96284     0.50322     1.04851
