 11
no_name:-305.908122413421
H     -0.51914     2.29103    -1.77712
C     -1.04546     0.76668     0.04734
H      3.58909    -2.81993    -0.33591
C     -1.01252     1.80809    -0.93521
C     -0.54045    -0.35025     0.66742
C      1.60998    -1.89804     0.36466
C      2.66376    -2.38327    -0.00997
H     -2.97015     2.24005     0.25280
C      0.41578    -1.32891     0.79719
C     -2.03936     1.78742    -0.08500
C     -0.68027    -1.35045     1.69676
