 11
no_name:-268.537662535755
C     -0.48007     0.89839     0.60666
C     -0.80159     0.15969    -0.35187
C      0.24948     2.38474     2.58193
H      1.09023    -2.29748    -0.33584
C     -0.09488     1.67610     1.64382
H      0.54897     3.00387     3.40660
C     -0.31835    -0.99004    -1.24747
C     -1.50650    -0.52802    -1.49371
H      1.79439    -1.10934    -1.46751
H      0.86303    -2.50359    -2.10189
C      0.92870    -1.76615    -1.28720
