 18
no_name:-310.424589285466
H      2.02383     2.04607     0.78621
H     -0.38452    -1.51348    -2.47226
C      0.50262     0.41156    -1.63296
H      0.18638     0.91234     2.40667
C     -0.18478    -0.89363    -1.59605
C      1.20017     2.20919     0.06863
H      1.60803     2.76795    -0.78695
C      0.58923     0.91997    -0.37645
H     -0.68266    -0.73696     2.45347
H      0.88060     0.88690    -2.54018
H     -1.47222    -3.10297    -0.61921
C     -0.52536    -1.19656    -0.31662
H     -2.17698    -2.14712     0.70661
C     -0.05624    -0.06712     0.52997
H      0.46339     2.85878     0.57343
C     -1.23132    -2.40844     0.19944
C     -0.19092     0.04144     1.86332
H     -0.61761    -2.95722     0.93564
