 12
no_name:-231.705468882935
C      0.52154     0.81992     0.88188
H     -0.60607     0.77910    -1.51433
C      1.29074     1.68252     1.25171
C      0.05900    -1.15691    -0.70701
H      1.97054     2.44397     1.58471
H      1.10751    -0.98845    -0.96248
H     -1.21852    -0.42501     2.37235
C     -0.41729    -0.21276     0.48724
H     -0.25957    -2.19411    -0.59699
C     -0.92385    -0.14279    -1.02230
H     -1.96836    -0.43138    -1.14559
C     -1.34946    -0.85691     1.35298
