 15
no_name:-196.270161155171
H      2.21067     2.15872    -0.66661
H     -0.37522    -0.69352    -1.16024
C     -0.80285    -0.82458     0.89129
H      1.54219     0.40325     1.02377
C     -2.11053    -1.55156     0.78846
C      1.23351     1.65285    -0.72853
H     -2.92872    -0.97335     1.25380
C     -0.03421    -0.45868    -0.14122
H      2.07120    -0.32557    -0.49814
H      0.47865     2.30810    -0.26448
C      1.26892     0.28244    -0.03861
H     -0.46000    -0.58279     1.90731
H     -2.38545    -1.74781    -0.25984
H      0.97505     1.55504    -1.79640
H     -2.07447    -2.52015     1.31864
