 17
no_name:-309.791078965955
C     -1.70551    -1.32439     0.92791
C     -0.68970    -1.18972     0.00383
H     -2.31784    -2.21301     1.08912
C     -1.83564    -0.06351     1.67235
C     -0.90650     0.81231     1.19516
H      2.17928     2.38284    -1.04437
H     -0.74395     1.83326     1.53601
H      2.37539     0.35161    -2.22311
H     -2.55805     0.12319     2.46742
C     -0.15103     0.13699     0.12837
H     -0.35120    -1.94929    -0.69819
H      0.91455     2.62260     0.30304
C      0.92269     0.69007    -0.64715
H      0.82751    -0.50255    -2.45256
C      1.56712    -0.18054    -1.70169
H      1.99005    -1.09490    -1.25501
C      1.36070     1.97008    -0.44933
