 14
no_name:-307.889312787086
C     -0.26406    -0.19019    -0.18059
H      0.30332     3.23980    -0.03182
H     -2.81740    -0.39226    -2.87715
H      2.68033    -1.55176     3.14340
C     -0.12657     2.29145    -0.36296
C      1.12763    -1.39343     1.46687
C      1.95259    -1.47837     2.35722
H     -0.87374     2.32435    -1.16083
C      0.25337     1.13101     0.19357
H     -0.26342    -2.29223     0.10444
C     -1.24729    -0.27998    -1.21655
C      0.16385    -1.33907     0.43108
C     -2.07930    -0.33608    -2.09916
H      1.00268     1.12438     0.99041
