 10
no_name:-305.22210867266
C      0.04889     1.38600     0.37685
C     -0.76479     0.55956    -0.58189
C     -1.33785    -0.62812    -0.19927
C     -1.39070    -1.73366     0.43531
C      0.90338    -1.00208     1.31080
C      0.71965     0.68311    -0.79451
C     -0.16963    -1.63939     1.07803
H      1.37679     1.01593    -1.59366
C      0.88254     0.18960     0.58432
H      0.04219     2.41263     0.73350
