 11
no_name:-231.126627931657
C     -0.31758     0.04916     0.47110
H     -0.84966     0.45346    -1.82418
C     -1.19612     0.17162    -0.82646
H     -1.32496     2.09057     0.36487
H     -0.32572    -1.86805    -0.66041
H      3.29534     0.62965     1.05656
C      1.06879     0.27583     0.65595
H     -1.82983    -1.59896     0.38251
C     -0.98501    -1.15157    -0.15719
C      2.25147     0.46165     0.87011
C     -1.43534     1.00270     0.33871
