 15
no_name:-233.696480795718
H      2.15754     1.90118     0.38019
H     -2.49145     0.81164    -0.97188
H      1.92415    -0.45466     1.68812
C      1.63661    -0.33023     0.62750
H      0.38316    -1.82096    -0.44566
H     -0.16390    -1.50316     1.19832
C      0.27814    -1.01720     0.30770
H      2.46826    -0.76529     0.04247
C      1.40459     1.11805     0.27704
C      0.10581     1.29570    -0.18988
H     -0.31178     2.25417    -0.51031
C     -0.60846     0.09697    -0.20129
H     -2.08382    -0.85865    -1.45164
C     -2.01837    -0.12113    -0.62861
H     -2.63386    -0.53078     0.19553
