 13
no_name:-307.129586210243
C     -2.02256    -1.15900     2.54092
H     -2.96511    -1.55382     2.87101
H      1.77032     1.12695    -2.81533
H      1.23626    -1.17795    -0.80169
C     -0.94345    -0.72020     2.17927
H     -1.18441     0.00200    -2.34720
C     -0.15523     0.13344    -2.02216
C      0.76474     0.58949     0.37758
C      0.83286    -0.15857    -0.91054
H      0.41726     1.63136     0.28149
C      0.25284    -0.20091     1.73268
C      1.04234     0.58958    -2.21235
C      1.48760     0.17437     1.60019
