 10
no_name:-230.492814553746
H      1.86434     0.03817    -0.75786
C      0.19648     1.15543    -0.17060
C      0.56932    -1.39426     0.23850
C     -0.77656    -1.45863     0.15172
C     -1.19179     0.98326    -0.24540
H      1.74294     0.29312     0.94352
C      1.11356     0.04110     0.06229
C     -1.44645    -0.36479    -0.06125
H     -1.92430     1.77484    -0.41807
H      1.27687    -2.21558     0.41221
