 14
no_name:-307.878155910352
C      0.88471     0.54050    -0.05663
H      0.39608     2.85722     0.45174
H      1.00797    -3.72133     1.98476
H      1.96418     0.46792     0.08995
C      0.31680    -1.77784     0.99050
C      0.69404    -2.80695     1.51835
C     -1.07530     1.23825    -0.59301
H     -1.88659     1.86205    -0.97496
H     -2.25829    -0.60845     0.16783
C      0.29745     1.25584    -1.26435
H      0.67499     1.57110    -2.23766
C     -0.07056    -0.56553     0.37347
C     -1.29895    -0.11237     0.02985
C      0.16273     1.87701     0.03470
