 17
no_name:-309.683139430565
C      0.58531     1.13982     0.26084
C     -0.67352     0.82874     1.01243
H     -1.02130     2.42245    -0.57863
H     -1.72568    -1.10893     0.96592
C     -1.33988    -0.34749     0.26977
H     -2.19920    -0.01432    -0.33997
H     -0.69584     0.83146     2.10836
H     -1.06004    -2.84125    -1.07628
H      2.36519    -0.09692     0.90644
H      0.62360    -2.48417    -1.81002
H     -0.31092     3.03945     1.00823
C     -0.22015    -0.92927    -0.62463
H      2.72513     1.17705    -0.37410
C      1.96576     0.55720     0.11998
C     -0.21929    -2.15267    -1.19865
C      0.80307     0.09446    -0.71202
C     -0.46416     2.18788     0.33622
