 12
no_name:-156.996013986367
H      1.85125     0.79763    -1.06983
H     -1.43532    -0.99649    -0.31100
H      0.87890    -1.67977     0.58844
C     -1.34089    -0.01714     0.18692
C      0.10861     0.39950     0.29270
H      2.02018    -0.37274     1.18872
H     -1.80879    -0.10424     1.18212
H      0.26475     1.36831     0.78223
H      0.71184    -0.51637    -1.65764
C      1.08428     0.06321    -0.80666
H     -1.92816     0.71083    -0.39808
C      1.18434    -0.62985     0.53135
