 17
no_name:-309.678957902685
H     -1.28380     3.43627     0.67094
H      2.29965    -1.65800    -0.00858
C     -1.05487     1.32756     0.71529
C     -0.30697     0.10453     0.38433
H      0.90655     0.60612    -1.36236
H     -1.98188     1.17170     1.27954
C      0.15831    -2.03704     0.20400
H      0.04898    -3.12001     0.30728
H      0.24051     2.76816    -0.16878
H      1.79014     0.67050     0.17936
C      1.35101    -1.39655    -0.50544
C     -0.68025     2.57038     0.38711
H     -2.07617    -1.33336    -0.44320
C     -1.09909    -1.18456     0.01431
H      1.42584    -1.72547    -1.55525
C      1.01960     0.11645    -0.38103
C     -0.39838    -1.12540     1.25617
