 12
no_name:-231.794992320984
H      1.31390    -1.50203    -0.98721
C     -1.02359     0.15698     0.57073
C      1.18019     0.36156     0.18128
C     -1.87078     0.03879    -0.42493
H      2.18229     0.80028     0.15303
H     -2.61394     0.54045    -1.04470
H      0.70330    -0.09351    -1.87009
C      0.21602     0.77061     1.04012
H     -0.92327    -2.00776    -0.10836
H      0.32555     1.51777     1.82702
C      0.67627    -0.60884    -0.88770
C     -0.74611    -0.96283    -0.40179
