 16
no_name:-309.073271824019
C     -2.40464     1.88470     2.30913
C      0.21135     0.32044    -0.22468
C      0.42722    -1.08011    -0.55514
C     -1.47059     1.58500     1.43208
H      0.45449    -2.35806    -2.39475
H      0.99218    -0.61865    -2.67056
H      2.64097    -0.81525    -0.75533
H     -0.24254    -1.77871    -0.04777
H      2.11110    -2.55539    -0.46910
H     -2.19456     1.95178     3.38615
C      0.87478    -1.44520    -1.96432
C     -0.55120     1.28209     0.56305
H     -3.44327     2.08624     2.01043
H      1.12021     2.37133    -0.84575
C      1.84537    -1.56083    -0.83727
C      0.51567     1.59946    -0.37459
