 18
no_name:-385.159983490647
C      0.37242    -1.67265    -1.43748
C      0.32196    -0.76338    -0.63628
C     -1.01099     0.63423     1.13911
H      0.48143    -2.38163    -3.43671
H     -2.14547     0.37619    -0.75877
C     -1.90606     1.10029     0.02439
H      1.32540    -3.39018    -2.23559
C      0.43384    -2.76329    -2.40308
H     -0.45221    -3.41523    -2.32536
H     -2.70938     1.79523     0.28490
H      1.58853     2.23240     2.73274
C      1.44020     0.65960     1.20798
C     -0.37152     1.97162     1.55926
C      0.27858     0.30399     0.32751
C      1.03300     1.69144     1.96844
H     -0.98707     2.76075     1.99561
H      2.40054     0.14783     1.19153
C     -0.49909     1.62939     0.06227
