  8
no_name:-266.650329764542
C      0.93695     1.03150    -0.12309
C     -0.11934     1.68067    -0.44405
C     -2.10394     0.50163    -0.43747
C      1.06508    -0.32145     0.23995
H      2.01259    -0.79981     0.50175
C     -1.33245    -0.51433    -0.06509
C     -0.17634    -0.98277     0.22499
C     -1.43215     1.71614    -0.64761
