 15
no_name:-308.494238099447
C     -0.01196     0.91082     0.19436
H      2.12935     0.77707    -0.43114
H      0.44771    -2.90301    -1.19533
C      1.10368     0.61993    -0.80966
H      1.80990    -1.98096    -2.08569
H     -1.59878    -2.20193     0.70050
C     -0.42900     2.06551     0.84226
C      0.60259    -0.83286    -0.77594
H     -2.11517    -0.60998     1.54772
C     -0.78809     3.08925     1.41023
C     -0.45490    -0.45570     0.20432
C     -1.44901    -1.13102     0.85583
C      0.97227    -1.96150    -1.38283
H     -1.10733     3.98297     1.91258
H      1.00537     1.13294    -1.78287
