 16
no_name:-308.948483714449
C     -0.79213    -1.22027     1.57279
C      0.51842    -0.84604     0.91352
C     -0.00621     0.33882    -0.02661
C     -0.26001    -0.13283    -1.55268
H     -1.24086    -0.53457    -1.84007
H      0.98255    -1.68460     0.37006
H      1.27511     2.30350    -0.11111
H     -1.30282     1.93287     0.93355
H      1.28005    -0.41598     1.58676
H     -1.06808    -2.26751     1.74319
C     -1.12347     0.85749     0.83645
C      1.04903     1.35481    -0.61805
H      1.95888     0.74210    -0.76657
H      0.56302    -0.83403    -1.78312
C     -0.02959     1.31168    -1.61493
C     -1.62966    -0.14681     1.60787
