 17
no_name:-347.219807297127
C      0.67033     2.36078    -0.19382
H      0.89803    -0.86304    -2.29610
H     -1.12047    -3.17268     0.82389
H      0.04202     4.39007    -0.11315
C     -0.66203    -2.36162     0.25871
C      0.39822    -1.10223    -1.35741
H     -1.49261    -1.09751     2.64141
C     -0.55807    -0.97429     0.73258
C      0.13324    -0.21294    -0.34898
C     -0.09534    -2.42783    -0.97630
C      0.96510     3.78518    -0.10327
H     -0.01130    -3.31820    -1.60099
H     -0.85390     0.59114     2.13460
H      1.58914     4.11642    -0.95008
C      0.43129     1.17011    -0.28437
C     -0.99238    -0.46808     1.90027
H      1.50967     4.02544     0.82588
