 15
no_name:-308.500338597713
H      1.29110     3.34042     1.47805
C     -0.21186     0.47607     0.78700
C      0.43743    -1.07263    -1.64375
H      1.78813    -2.04776    -0.17208
C      0.15088     1.57400     1.35188
C     -0.75761    -0.35674    -1.54422
H      0.97926    -1.24500    -2.57598
H     -1.30305     0.10481    -2.36800
C     -0.07065    -1.01427     0.65425
C      0.87424    -1.49241    -0.38535
C     -1.16055    -0.25645    -0.11939
H     -0.28845    -1.61294     1.54537
C      0.52515     2.69855     1.92765
H     -2.21473    -0.27421     0.17792
H      0.08364     3.03038     2.87413
