 13
no_name:-344.603617516976
C      0.60537     1.24337    -0.15064
C     -1.37873    -0.30357    -1.41495
C     -0.00835     1.70481    -1.49500
C     -0.70464     0.79487    -2.02842
H      2.43837    -1.64943     2.43103
H     -2.19118    -0.85126    -1.89834
C     -0.90328    -0.70137    -0.19381
C      0.26911    -0.04062     0.43353
H      1.29495    -0.67092     3.54210
C      0.80189     2.47598    -0.56087
H     -1.34132    -1.55523     0.32766
C      0.94913    -0.52041     1.47488
C      1.58366    -0.96549     2.52365
