 15
no_name:-233.6073947436
H      1.48461    -1.38907     0.06377
C      0.67057    -0.91347    -0.50635
H     -0.39283     1.94978     0.01571
H      1.81399     0.98196    -0.64111
C      0.94855     0.49036    -1.11052
H      1.06713     0.54313    -2.20293
C     -0.40201     0.99443    -0.53190
H      0.29549    -1.63316    -1.25245
H     -1.20506     1.02483    -1.28553
C     -0.46496    -0.28725     0.32524
H      0.11040    -0.94670     2.42918
H     -2.02767    -1.92215     0.94981
H     -0.78938     0.65574     2.34167
C     -0.56891    -0.30347     1.85080
C     -1.59346    -0.92091     0.99183
