  8
no_name:-229.237972798046
C      0.56027     0.92628    -1.64362
H      1.45534     1.30362    -2.13306
C      0.02129     0.32891    -0.42559
H     -1.69839     0.65218    -2.11681
C      0.22705    -0.59908     1.99340
C      0.32876    -1.06206     3.19348
C      0.12375    -0.13357     0.78093
C     -0.72233     0.66113    -1.63694
