 11
no_name:-343.375759789471
C     -1.16835     0.48163     0.53679
C     -2.17996    -1.94279     0.86040
C      2.28276     1.81960    -0.91000
H      4.27577     2.59194    -1.74330
C     -2.36139    -3.14502     0.88045
C      1.09742     1.36205    -0.41474
C      3.34248     2.22963    -1.35305
H     -2.52263    -4.20760     0.89847
C      0.03288     0.94686     0.03250
C     -1.97689    -0.56338     0.84017
C     -2.45203     0.74890     1.11461
