 16
no_name:-346.484002406139
H      1.35804    -2.33041    -1.66905
C     -0.95277     0.17656    -1.28949
H     -1.70184     0.72871    -1.86155
C      1.21103    -1.17853     0.13481
H     -0.00458     2.47458     0.80866
C      0.82813    -1.52712    -1.15171
H     -1.64364     2.00945     1.47557
C     -0.21975    -0.83543    -1.85553
C     -0.69253     0.46595     0.10379
C     -0.67189     1.64619     1.10876
H     -0.41616    -1.12594    -2.89125
C      0.50691    -0.11171     0.73221
H      2.04731    -1.67493     0.63276
C      0.00615     0.53114     1.96806
H      0.40778     0.54877     2.98289
C     -1.02375    -0.45828     1.39235
