 15
no_name:-233.630883343263
C      0.42499     0.58686    -0.35278
C     -0.50495     0.77358     0.91629
H      0.11669     1.32328    -1.11716
H     -1.80834    -1.09870     1.06268
C     -1.44232    -0.33361     0.36028
H     -2.30879     0.08640    -0.17933
H      0.01325     0.45327     1.83204
H     -0.60900    -2.75240    -1.14800
H      2.37534    -0.22682     0.36184
H      0.97287    -1.93973    -1.73501
H     -0.92658     1.77799     1.06785
C     -0.31855    -0.73259    -0.57718
H      2.51670     1.39781    -0.56777
C      1.89417     0.57751    -0.20247
C      0.03074    -1.86522    -1.18335
