 17
no_name:-384.561568945652
C     -1.23412     0.13826    -0.23464
C     -1.82991     1.15173     0.49103
H      2.63190    -1.91068     1.32026
H      3.34399     0.18334    -1.00863
H     -2.74981    -2.13076    -2.73969
H     -0.98798     2.57468     2.02398
C      2.64972    -0.46286    -0.47772
C      1.17926    -0.85407    -0.38860
C     -1.82631    -0.72097    -1.18668
C      0.40806     1.09414     1.12375
C     -2.30978    -1.47269    -2.01473
C     -0.81682     1.74659     1.33404
H      1.35429     1.31781     1.61355
C      0.20245     0.09096     0.16150
H     -2.87645     1.44747     0.43664
C      2.36295    -1.30490     0.45877
H      0.76564    -1.54492    -1.13612
