 12
no_name:-381.325235733874
C     -0.34932    -0.04330     0.19673
C     -2.88622     0.30938     0.40266
C      0.96352    -0.17833     0.09104
C     -4.14152     0.48159     0.50248
C     -5.43300     0.65886     0.60010
C      2.01268    -0.40423    -0.89024
C     -1.60075     0.13611     0.30321
C      2.18699    -0.20425     0.96952
C      3.01081     0.19694    -0.08795
H      4.04359     0.52222    -0.20661
H      2.09955    -1.25193    -1.58619
C     -6.70366     0.84097     0.69304
