 11
no_name:-231.132462542066
C      0.63673    -0.21814    -1.15676
H     -1.68443    -1.36382     1.19422
H      1.53263     1.42064     0.16306
C     -0.95791    -0.72029     0.70171
H      1.35905    -0.59557    -1.88175
C      0.00045     0.06190     1.23047
H      0.25171     0.21547     2.28072
H     -0.59692     1.71186    -1.75023
C      0.69799     0.72005     0.05459
C     -0.79385    -0.49695    -0.77904
C     -0.30373     0.89180    -1.09344
