  9
no_name:-192.443865864434
C     -0.07169     0.71264     0.16604
C     -0.36827     0.31421    -1.25330
H      1.37182     0.71128     1.86426
C     -0.23676    -0.52287     0.86605
H     -0.90009    -0.94960     1.61737
H     -0.28043     0.76319    -2.23685
C     -0.28372    -0.84826    -0.62436
H      1.96649    -0.27441     0.39885
C      1.12557     0.19618     0.92858
