 11
no_name:-231.096463508935
C     -0.58153    -0.22310     0.71019
H     -1.26715    -1.30072    -1.38009
H      3.07466     0.23620     1.04556
H      0.86076     0.81786    -1.78502
H     -1.15550    -0.59131     1.56235
C     -1.00479     0.81518    -0.33213
H     -1.72352     1.62370    -0.42360
C      0.89395     0.07254     0.50929
C      2.01589     0.02811     1.17809
C     -0.79423    -0.53455    -0.77352
C      0.37352     0.44644    -0.88177
