 10
no_name:-193.117796675507
C     -0.53171    -0.62681     0.05149
H     -4.14074     0.01248     0.65896
H      2.30120    -0.66958    -0.40791
C     -1.91361    -0.35597     0.28597
C      0.42656     0.28554    -0.06573
H      2.39331     0.84662     0.53686
C     -3.09723    -0.16859     0.48362
C      1.87221     0.34747    -0.29847
H      2.10769     0.91468    -1.21570
H     -0.25415    -1.69476    -0.03714
