 15
no_name:-233.637256785066
H      0.09654     1.45317     0.95530
H      1.35869    -0.87499    -0.61467
C      0.51472    -1.31322     1.30446
C     -1.55957     0.37965    -1.16988
H      0.94112     1.59596    -0.60126
H     -2.93454     2.09148    -1.87475
C     -0.73520    -0.64127    -0.75647
H      1.48494    -1.26739     1.82521
H      0.29705    -2.37063     1.08359
H      1.83695     1.07752     0.85243
C     -2.29643     1.29433    -1.54397
C      0.54625    -0.46411     0.02013
H     -1.03112    -1.66922    -0.99995
C      0.87536     0.99941     0.32116
H     -0.26255    -0.94550     1.99439
