 13
no_name:-307.204893280596
C     -0.58345    -0.22390    -0.01954
C      0.00122     0.95066    -0.59308
C     -2.15323    -3.34656     1.50071
C     -1.65317    -2.34612     1.01556
H      3.22614     2.29816    -0.68411
H     -2.59208    -4.22890     1.92727
H     -1.87698     1.82998    -1.48319
C      1.46267     1.15365    -0.42067
C     -1.09130    -1.22347     0.47102
H      1.65713     3.04752    -1.37009
C      2.14861     2.22121    -0.84761
H      1.97970     0.34442     0.10361
C     -0.81398     1.78851    -1.24709
