 19
no_name:-348.411635522031
C     -2.04283     1.35758    -0.07157
C     -0.95230     0.44108    -0.04734
C      1.40028    -0.93495    -0.03701
H      0.50405     2.06769    -0.23705
C      0.12166    -1.77893     0.08189
H      2.30136    -1.56724    -0.02463
H      2.21487     0.55383    -1.45078
H     -3.74168     2.89115    -0.11417
H      2.31896     0.75156     1.05444
C     -2.93638     2.18155    -0.09507
C      1.33513     0.27198     0.94091
C     -1.10094    -0.89772     0.06386
H      0.06913    -2.51414    -0.74359
H     -2.09360    -1.34934     0.14165
C      0.47628     0.97385    -0.14940
H      0.87749     0.12082     1.93129
H      0.71030    -0.19776    -2.09647
H      0.14113    -2.37745     1.01254
C      1.24688     0.10423    -1.18314
