 19
no_name:-385.943489725905
H     -0.98829     2.60240    -0.00783
H     -2.76203    -1.10218     2.61022
C     -0.29121    -0.47444     0.15438
H     -2.06826     1.51689     2.22726
H      2.43008    -0.17570    -2.59602
C      0.21622     0.79053    -0.20461
C     -1.31120    -0.30513     1.22153
H     -0.21130    -2.61402    -0.20090
C      1.15926    -1.51017    -1.46464
H      1.53593    -2.40550    -1.96582
C      0.17830    -1.63021    -0.47448
H      0.26869     2.44583     1.22016
C      1.66360    -0.25219    -1.82057
C     -1.40091     1.07197     1.48727
C     -0.45892     1.86143     0.62310
C      1.19326     0.90751    -1.19058
H      1.58935     1.88753    -1.47122
C     -2.02910    -1.32353     1.83102
H     -1.88437    -2.36907     1.55172
