 11
no_name:-268.566357906747
H      2.22075     1.08527     2.54235
H     -3.06207    -1.79324     0.93687
C     -0.06375     1.25758    -2.32038
H     -0.18599     1.93756    -3.14257
C      0.06677     0.49678    -1.39004
C     -1.06203    -0.96650     0.21058
C      1.65545     0.64647     1.74159
C      0.23533    -0.44157    -0.26181
C      1.01261     0.16236     0.83949
C     -2.12036    -1.40648     0.59496
H      0.81966    -1.30513    -0.63944
