 10
no_name:-305.16407961811
C      1.50108     0.13387     0.55383
C     -0.00189     0.06972     0.16024
C     -0.92613    -0.21776    -0.88508
C      0.17336     0.75927     1.54219
C     -1.55113     0.10248    -2.01766
H     -1.71095     0.81323    -2.82926
C      0.56175    -0.63564     1.36946
H      0.43394    -1.61717     1.81805
C      0.92091     1.49156     0.48462
C     -1.86923    -1.14530    -1.42509
