 16
no_name:-309.219218989078
C     -0.26538     1.38217    -0.52389
H      1.38155     0.84439    -1.75413
H     -1.66796    -0.60589     1.94997
H     -0.38575     2.36612    -0.98581
H     -2.29692     2.84530     0.52596
C     -1.18653     1.01764     0.55166
C     -0.99358    -0.30570     1.14312
C      0.70734     0.54431    -0.94709
C     -0.02086    -1.14356     0.71991
H      0.09934    -2.12763     1.18165
H      2.01156    -2.60615    -0.32901
C      0.90051    -0.77890    -0.35540
H      2.56051    -1.33498    -1.58387
C      1.87733    -1.61934    -0.77944
H     -2.84588     1.57413     1.78082
C     -2.16288     1.85838     0.97619
