 13
no_name:-344.631751563786
H      2.74735    -1.69734     4.33192
C     -0.82130    -0.29647    -0.62939
C     -1.38559     0.91057    -1.39743
C      0.66259    -0.89863     1.43256
C     -0.03537    -0.64253     0.45791
H     -2.22911     1.45272    -0.94155
C      1.44069    -1.19598     2.51490
C      2.13491    -1.46205     3.48156
H     -1.95157    -1.28202    -2.38593
H      0.85882     3.07114    -3.45758
C     -1.54061    -0.55613    -1.68874
C     -0.51216     1.74652    -2.19488
C      0.21509     2.44927    -2.86452
