 11
no_name:-343.279765173982
C     -1.74324     0.73599    -0.63723
C     -0.93655    -1.51614     0.50170
C      1.67166     0.69000    -0.08154
H      3.96131     0.71969     0.01450
C      0.27294     0.67624    -0.15175
C     -1.11500    -2.62437     0.97186
C      2.88765     0.70641    -0.03507
H     -1.26583    -3.60732     1.37982
C     -2.00550     2.08193    -0.96201
C     -0.70294     1.78269    -0.51493
C     -0.74520    -0.23295    -0.02586
