 10
no_name:-267.866022407668
C      0.67269    -0.19816     0.14647
C     -0.63382     0.03153     0.04899
C     -2.74033     0.60426    -0.07197
H      2.65232    -0.15668    -1.26492
H     -3.80095     0.82453    -0.14486
C      2.00220    -0.24742    -0.39726
C     -1.69358     0.26826    -0.93330
C      1.86464    -0.47784     0.89931
H      2.32079    -0.71204     1.85892
C     -1.87825    -0.04158     0.81700
