 12
no_name:-306.592869228407
H      1.82469     0.72922     1.10144
C     -0.97639    -0.11286     2.27719
C     -0.76801    -0.18750    -0.45017
H     -2.09737    -0.36893     4.25956
C      0.46014     0.18602    -0.87653
C     -0.32469     0.03283     1.04295
C     -1.57902    -0.25226     3.32628
H     -1.68948    -0.50965    -0.93507
H      2.23346     0.58268    -4.09344
C      1.11189     0.33112    -2.11082
C      1.71481     0.46678    -3.16023
C      0.90330     0.40685     0.61655
