 12
no_name:-381.245242979275
C     -0.36415    -0.80173    -0.57846
C     -2.75420     0.00839     0.22639
C      0.86534    -0.39843    -0.19066
C     -3.67883     0.63500     0.88014
C     -4.59777     1.26524     1.53417
C      2.26351    -0.70084    -0.42501
C     -1.79143    -0.59856    -0.40521
C      1.50779     0.52778     0.77397
C      2.70090     0.56598     0.02989
H      3.63527     1.12472     0.06262
H      2.75913    -1.67839    -0.32567
C     -1.24529    -1.52157    -1.38488
