 17
no_name:-384.575761095903
C     -1.04728     0.25809    -0.21563
C     -1.84499     1.11324     0.50991
H      3.60107    -0.23386     0.14789
H      1.84332    -2.02022    -1.68940
H     -1.85415    -1.62799    -3.30047
H     -1.46060     2.30461     2.39204
C      1.92277    -1.40981    -0.79417
C      1.36359    -0.55508     0.06057
C     -1.36430    -0.45678    -1.39380
C      0.19189     1.05698     1.61691
C     -1.61867    -1.08135    -2.40718
C     -1.07969     1.60801     1.64394
H      1.00064     1.22760     2.32566
C      0.27125     0.20403     0.47681
H     -2.87553     1.37538     0.27373
C      2.78866    -0.95541     0.33652
H      3.00724    -1.64442     1.16943
