 16
no_name:-346.559323590481
C      1.50922    -0.66269     0.80695
C     -0.60839    -0.32640    -0.29799
H      2.59567    -0.68842     0.66816
C      0.69850    -1.97668     0.73779
H      1.19454    -2.93757     0.55934
H     -2.44640     0.53172    -1.33493
H     -1.10338     2.82313    -1.23172
H      1.28343     2.44813    -0.01005
H     -1.39284    -2.36475    -0.10848
C     -1.45802     0.68524    -0.90441
C     -0.58764    -1.64142     0.04196
C      0.64892     0.34146     0.12254
C      0.55218     1.66013    -0.19226
C     -0.75737     1.86190    -0.84600
H      0.14689    -0.83126     2.69102
C      0.90317    -1.25751     2.02501
