 12
no_name:-306.611530075465
H      2.51614     1.31593     1.38410
H     -3.05654    -2.84043     1.05240
C      0.01772     1.76685    -2.83567
H     -0.01216     2.27913    -3.77961
C      0.04609     1.18466    -1.76785
C     -1.43037    -1.29790     0.57868
C      1.73892     0.58323     1.61028
C     -0.42967    -0.36457     0.31216
C      0.76935     0.32903     0.73231
C     -2.29063    -2.11838     0.83701
H      1.77135     0.06253     2.56944
C      0.10377     0.53340    -0.53660
