 16
no_name:-309.104943079003
C     -0.84351     0.81485    -0.02303
H      0.66463    -1.10820    -2.32964
H      0.97685     2.16178     0.52097
H      0.34504    -1.93014     0.61128
H     -1.74492     1.51952     1.93262
H      1.62625    -1.09444     1.57295
H     -2.27317    -0.14277     1.37274
C      1.28846    -0.04178    -0.38597
C      0.37185    -0.43380    -1.52299
C     -1.50275     0.63790     1.32037
H      2.36720    -0.01947    -0.58451
C      0.58267     1.15581     0.32151
H     -1.79324    -0.27918    -1.77754
C     -0.88141    -0.02033    -1.23665
C      0.79911    -0.95731     0.86061
C     -0.08082     0.19445     1.24652
