 12
no_name:-231.837785916933
C      0.83959    -0.13500    -0.12461
C     -2.09619     0.07215     0.50081
H     -3.51748    -1.68404     0.87319
C      2.15322    -0.18492    -0.40846
H      2.68524    -1.13628    -0.48705
C     -2.85297    -0.85957     0.69603
H      2.73627     0.72759    -0.57126
H      0.28183    -1.06467     0.03328
C      0.08596     1.09941    -0.00896
H      0.63658     2.03353    -0.16369
H     -1.70280     2.17433     0.33688
C     -1.23896     1.18375     0.27401
