 19
no_name:-385.892926923951
H      2.27392    -2.18907     0.19745
H      2.75290    -0.07602     1.76864
C      1.64052    -1.30849     0.31886
H      0.40341    -2.98512    -1.48195
H     -1.54958     3.08248     0.89785
H     -2.28623     0.60920     0.12226
H     -2.01161    -1.09089    -1.88186
H     -1.43413     1.40343    -1.20557
C      0.76386     0.67739     0.94529
C     -0.15387     0.11033     0.01744
C     -0.93370     2.19147     0.76130
H      0.75324     2.61476     2.09754
C      0.26602     1.94661     1.38517
C     -1.31174     1.04970    -0.16374
C      1.88900    -0.22970     1.12344
C      0.34522    -1.12220    -0.39963
C     -0.19873    -2.08262    -1.32352
H     -1.70527    -2.74657    -2.68384
C     -1.36699    -1.96599    -1.99819
