 11
no_name:-305.973668714408
C     -1.10383     1.34577     0.40017
C     -0.90760    -1.31080     0.60468
H      2.05465     1.45158    -0.99758
C     -2.14125     0.61732     0.93546
C      1.23421     0.86788    -0.57390
C      0.20713    -1.20202     0.10406
C      0.01809     1.48470    -0.10784
C      1.32506    -0.49788    -0.46419
C     -2.14974    -0.73340     1.08690
H      2.22564    -1.01718    -0.80254
H     -2.97204    -1.31274     1.51071
