 12
no_name:-306.637044976751
C      1.51590     0.91931    -0.18809
C      0.32202    -1.57263     0.22588
H      2.59806     0.78912    -0.13559
C      0.79986     2.12888    -0.42425
H     -1.88117    -2.04990     0.25151
C     -1.01714    -1.39200     0.15674
C     -1.46239     1.32081    -0.34037
C     -0.43218     2.29495    -0.48668
H      0.96731    -2.43405     0.39881
C     -0.84551     0.10780    -0.10709
C      0.58039    -0.08448    -0.03405
H     -2.54010     1.48200    -0.39795
