 10
no_name:-305.323750536128
C     -1.15841     1.29482    -1.10274
C     -1.39851    -0.90601    -0.03259
C      0.15112     1.97780    -0.97294
C     -0.46042    -1.41659     0.58473
C      0.93271     1.16952    -0.25479
C      0.94284    -1.09964     0.94253
H      1.60382    -1.74090     1.52657
C      1.20852     0.09603     0.41370
C     -1.69255     0.24119    -0.74733
H      0.39672     2.95300    -1.39471
