 12
no_name:-231.787002250108
C      0.67168    -0.80121    -0.14845
C     -1.53057     0.36235     0.38378
H     -3.81594     0.36373     0.34603
C      1.97720    -0.11091    -0.39852
H      2.52067     0.34755     0.44227
C     -2.74244     0.36107     0.36278
H      0.33079     0.77482    -1.85219
H      0.30004    -1.78276    -0.43711
C     -0.08516     0.37141     0.42922
H      0.33264     0.86222     1.32430
H      2.62194    -0.54541    -1.17007
C      0.68696     0.49126    -0.86343
