 13
no_name:-307.163338672801
C      0.51315     0.92647    -0.20961
H     -2.57340     0.54152    -1.49750
C      1.46052     0.12852     0.59565
H      2.52138     0.36325     0.69045
C      0.83173    -0.93673     1.15659
C     -1.62879     0.20480    -1.07766
C     -0.86142    -1.04833    -0.79180
C     -0.59670    -0.95433     0.78002
H      0.69103     1.98516    -0.41770
H      1.30367    -1.69990     1.77656
C     -0.85987     0.41311     0.17922
C     -0.17110     0.12251    -1.40787
H     -1.34370    -1.46221     1.39632
