 16
no_name:-383.980720704143
H     -1.21436    -1.70104     0.74239
H     -0.73036     2.62643    -0.01773
C     -3.64807     0.96632     1.74681
H      2.23025    -2.92181    -0.94273
H     -4.58885     1.12699     2.23924
H      2.58519     1.26828    -1.59922
C     -2.58090     0.80247     1.18747
C      1.82690     0.62780    -1.13914
C     -0.74069    -0.78949     0.38008
H      3.48620    -1.77491    -1.72819
C      1.75076    -0.85751    -0.93179
C     -1.33810     0.57482     0.54234
C      2.53041    -1.90810    -1.21595
C      0.60860     0.84865    -0.53206
C     -0.51902     1.55913    -0.00923
C      0.42745    -0.59130    -0.27187
