 14
no_name:-307.945770612306
H      2.60725    -0.42521    -1.76044
H      0.25099    -1.68969    -1.71758
C     -2.30994    -0.00972     1.30387
H     -1.99111    -1.43948    -0.26257
C     -0.25888    -0.24290    -0.03859
H      2.58149     1.51737     0.13804
C     -1.52688    -0.61341     0.28937
H     -3.60962     0.92523     2.94156
C      0.54773     0.82800     0.56551
H      0.20796     1.47273     1.37437
C      1.76426    -0.21380    -1.10113
C      1.74979     0.84220    -0.06847
C      0.56950    -0.86099    -1.08566
C     -3.00424     0.48205     2.17305
