 16
no_name:-346.550819234235
H      1.20570    -2.35840    -1.41592
C     -1.16762     0.08066    -1.97370
H     -1.77403     0.29957    -2.85995
C      0.90729    -1.08000     0.20368
H     -0.40434     2.78734     1.49626
C      0.63641    -1.49002    -1.06813
H     -1.58141     1.70384     2.30927
C     -0.28057    -0.95612    -2.06442
C     -0.80341     0.90702     0.37713
C     -0.68229     1.73210     1.66750
H     -0.25125    -1.47612    -3.02759
C      0.30214     0.04543     0.87589
H      1.66413    -1.63934     0.76381
C      0.44095     0.76111     2.03210
H      1.10657     0.69166     2.89286
C     -1.38214     0.89037    -0.81498
