 11
no_name:-231.099860148374
H      1.18992     1.68052     2.91481
C     -0.55523    -0.34404     0.55774
H      0.34535     0.38721    -2.54601
H     -0.45016    -1.18265    -2.20977
C     -0.33644     0.24298     1.85916
C      0.23503    -0.12926    -0.48807
C      0.35082     1.01418     2.70954
C      0.36811    -0.50407    -1.89555
H      1.32877    -1.01589    -2.07804
H     -1.43626    -1.00296     0.45789
C     -0.79765     0.35961     3.20695
