 18
no_name:-310.356854815354
C     -0.40404     0.34597    -1.12015
C     -2.08469     1.15243    -2.75248
H      3.38089    -0.44857     2.15931
H     -1.39825     1.90639    -3.15180
H      0.50291     0.67458     2.33620
C     -1.71393     0.32862    -1.75820
H     -3.08127     1.10117    -3.19808
C      0.96973    -0.86916     0.85548
H      0.32599     1.07954    -1.48355
H     -2.42343    -0.41660    -1.37933
C      1.32343     0.04699     1.96565
H      1.79541    -1.49718     0.49513
C     -0.05211    -0.47811    -0.13056
C      2.53938     0.15741     2.51101
H      2.73669     0.85759     3.32686
H     -0.48330    -2.56811     0.46601
C     -0.43370    -1.52793     0.80962
H     -1.13516    -1.28664     1.61823
