 13
no_name:-194.898234444141
H     -2.20436     0.10525    -0.46598
H      1.45512    -1.00235    -1.43466
C      0.01582     0.21550    -0.37264
C     -0.59120     0.77667     0.92478
C      1.20213    -0.77884    -0.38166
H     -0.90936     1.82201     0.89819
H     -0.14463     0.46210     1.86846
H      2.37289     0.92731    -0.33901
H     -1.43056    -1.24680     0.51380
H      0.93774    -1.71097     0.14462
H      0.01787     0.90568    -1.21999
C     -1.34679    -0.22799     0.12595
C      2.02337     0.15818     0.39418
