  9
no_name:-229.862547852255
H      2.80551    -2.07512    -1.71771
C      1.10578    -0.86311    -0.78212
C      0.07170    -0.14286    -0.15599
C     -1.52490     0.93155     0.96682
H     -1.47088     0.61388     2.01675
C      2.00930    -1.51006    -1.26890
C     -0.18975     1.14191     0.31173
H     -2.32533     1.66185     0.78876
C     -1.31401    -0.17371    -0.02840
