 16
no_name:-346.583645747167
H     -1.54368     1.97512     0.57704
H     -3.36680    -1.45075    -0.64820
H      0.84267     3.07126     1.03755
C     -1.33252    -0.84152    -0.35075
H     -3.13153     0.30323    -0.05726
C      1.69412     1.06530     0.41001
C      1.70221    -1.32506    -0.37669
C     -0.57542     1.49206     0.45716
C     -2.68500    -0.65039    -0.35120
C      2.19724    -2.38676    -0.70539
C      0.65384     2.05367     0.69365
H      2.65040    -3.31701    -0.99080
C     -0.36536     0.12996     0.01501
C      1.08829    -0.10389    -0.00058
H      2.76746     1.22562     0.50676
H     -0.93729    -1.81687    -0.65518
