 15
no_name:-345.855828838162
C     -0.43900     2.82677     1.47819
C      0.82349    -0.67884    -0.89174
H      0.50387     4.90579     1.67106
C     -1.01442     1.56022     1.36579
C     -0.74675    -1.95103    -0.28727
C      0.06238     3.93047     1.58057
H      1.15239    -2.92598    -0.89940
C     -1.01479     0.31368     0.84771
H      0.79145     0.01401    -1.74777
H     -1.56914    -2.59282     0.03958
C      0.42500    -2.16090    -1.22024
H      1.78641    -0.55914    -0.36985
C     -0.41058    -0.67007     0.00270
H      0.16059    -2.35488    -2.27373
C     -2.05951     0.66109     1.74690
