 13
no_name:-269.790598927224
C      0.34514     1.18299     1.17970
H     -0.64634     1.10882    -1.41080
C      1.07091     2.04600     1.62905
C      0.44336    -2.18264    -0.61026
H      1.70097     2.81448     2.03439
H      2.38678    -1.05919    -1.16830
H     -1.20436    -0.29635     1.33269
C     -0.48206     0.14069     0.63154
H      0.13764    -3.22486    -0.55185
C     -0.96078     0.22350    -0.84866
H     -1.98724    -0.10587    -1.04325
C      0.05688    -0.76448    -0.44068
C      1.36942    -1.29409    -0.86470
