 19
no_name:-385.951858429853
H     -0.42322    -0.64865    -2.79800
H      3.03925    -2.14442    -0.68657
H      1.67714    -1.99419    -2.75624
C      1.35073    -1.46484    -1.85723
C      0.17526    -0.71379    -1.88577
H      2.33118    -0.95179     1.38968
C      2.12190    -1.55051    -0.68727
C      1.72487    -0.87958     0.48234
C     -0.22954    -0.03851    -0.71746
C      0.55781    -0.12939     0.46684
C     -1.36925     0.79016    -0.45620
C     -1.34672     1.24987     0.88603
H     -3.13943     2.43230     0.95124
H      0.55971     1.48427     1.93037
H     -2.14673     1.03642    -1.18135
H     -0.36183     0.05881     2.43281
C     -0.09899     0.67990     1.55867
C     -2.26820     2.06122     1.49695
H     -2.16038     2.35989     2.54262
