 12
no_name:-306.666799504252
C      1.65962     1.20890    -1.20550
C      0.43091     0.15183     0.70039
C     -1.65972    -1.13474     0.39083
C     -0.63743    -0.60194     1.21327
H     -0.68164    -0.78503     2.29108
H      3.40413     2.45114    -2.00999
C     -1.42504    -0.79589    -0.93184
H     -2.48980    -1.71999     0.79011
C     -0.48122    -0.12718    -1.41148
H      1.19150     0.53818     1.38354
C      0.57317     0.44185    -0.68996
C      2.58320     1.87045    -1.63278
