 13
no_name:-381.939142516064
C      0.59689    -0.96207    -1.88630
C     -0.82537    -0.90768     0.29561
C     -0.81640     1.01513     2.13770
H      0.86995    -2.40002    -3.70288
C     -1.15051    -0.18738     1.47642
C     -0.12250    -0.95470    -0.79739
C      1.03472    -1.51690    -3.08671
H     -1.31878     1.22307     3.08849
C     -1.80622    -1.36949     1.30985
C      0.10676     1.91473     1.62523
C      1.61861    -0.33416    -2.80848
H      1.64431     3.37941     0.73983
C      0.92560     2.69793     1.15701
