 10
no_name:-230.555102245833
H      0.59355     2.77710     1.13297
C     -0.45446    -1.62654    -0.48520
C     -0.18843     0.89583     0.58164
C     -0.68223    -0.41794     0.17485
C      0.76307     1.82867     0.61819
C     -0.22010    -2.66644    -1.07054
H     -0.02365    -3.58954    -1.58382
H      1.72856     1.66407     0.13573
H     -2.46293     0.49754     1.35154
C     -1.48723     0.37492     0.88377
