  9
no_name:-192.533403852681
H      1.42901    -0.14322     2.86247
C      0.01695    -0.21755     1.06935
C      0.12469     0.76457    -2.32881
H     -1.19181    -1.31906    -0.26195
C     -0.89586    -0.26939    -0.07930
C     -0.33291     0.29599    -1.31166
H      0.53095     1.17755    -3.23290
C      0.76631    -0.17673     2.01824
H     -1.82984     0.26606     0.17313
