 11
no_name:-306.011382135258
C      1.17006    -0.77590    -1.18500
H      2.71493    -3.02896    -3.08085
C     -0.43831     0.40139     0.47273
C      1.97678    -1.36272    -2.01439
H     -3.46537     2.64817     3.60253
C     -2.80209     2.15455     2.91705
C     -2.04440     1.59126     2.13362
C      0.38156    -0.20159    -0.37041
C     -1.21023     0.97201     1.27244
C      2.79706    -1.95689    -2.85803
H      3.59468    -1.40283    -3.37036
