 14
no_name:-270.446449590787
H      1.82587    -3.05905    -0.37687
C      1.05676    -2.52995    -0.95697
C      0.16969     2.25973    -0.12912
C      0.55762    -1.39141    -0.55695
C     -0.24502     3.35711     0.22715
H     -0.60551     4.32129     0.53173
H      0.72740    -3.01101    -1.88856
H     -0.95081     0.31323     1.70699
C      0.04453    -0.22365    -0.13485
H     -1.52480    -1.22154     0.98697
C     -1.17816    -0.20430     0.76129
H      1.52737     0.97861    -1.17811
H     -1.99744     0.35229     0.27856
C      0.64686     1.01439    -0.52946
