 13
no_name:-269.854976553312
C     -0.06779     0.65643     1.09673
H      0.61380    -1.42987    -1.62177
C      0.60754    -0.33627     0.30144
H     -2.23025     1.79376    -1.22428
H      1.93050    -2.03548     0.50709
H     -1.92036     1.79574     1.24713
C     -0.80393     0.19212    -1.59230
C      1.53872    -1.11367     0.95043
H     -1.11331     0.07644    -2.63428
C      0.18915    -0.58969    -1.06317
H      1.84010    -0.85111     1.96660
C     -1.27199     1.17518     0.61709
C     -1.50620     1.11349    -0.76122
