 13
no_name:-195.027316758569
C     -0.33040    -0.35140     0.22532
H     -1.01231    -0.41940    -2.94602
C      0.20584     0.09622     1.51230
C     -0.75400    -0.70463    -0.85492
C      1.36239     1.09866     1.37492
H      2.20123     0.65571     0.81572
C     -1.27198    -1.13714    -2.14962
H     -0.86070    -2.11857    -2.44022
H     -2.37110    -1.22915    -2.13158
H      1.73157     1.40474     2.36671
H     -0.60813     0.54856     2.10740
H      1.03774     2.00105     0.83373
H      0.54421    -0.78291     2.09018
