 10
no_name:-230.533735786369
C     -0.03316     0.09509    -0.13505
H     -1.02030     3.41711    -1.41157
H      1.14515     0.00877     1.78156
H      0.67885    -2.86142     0.73610
C      0.64187    -0.42429     0.91632
C      0.40365    -1.86675     0.38480
C     -0.39404     1.36764    -0.59702
C     -0.73213     2.45332    -1.03613
C     -0.27135    -1.38965    -0.66954
H     -0.77818    -1.81105    -1.53800
