 14
no_name:-270.465620967015
C      0.08559     0.03212    -1.18655
C     -1.23416     0.59880    -1.08238
C     -2.34426     1.08113    -0.99536
C      0.31876    -0.12425     1.32394
H      0.60540    -0.29429     3.44823
H     -0.68368     0.30417     1.43369
C      0.79848    -0.30106     0.00775
H      2.02752    -0.88146     2.38820
H      0.07984     0.08225    -3.34212
H      1.62954    -0.60314    -2.53802
H     -3.32710     1.50647    -0.91758
H      1.79788    -0.72841    -0.12645
C      1.02304    -0.45134     2.45123
C      0.62955    -0.17440    -2.43552
