 12
no_name:-306.559435008117
H      2.23480    -1.71795     4.13052
C      0.02212     0.42591    -1.36379
C     -1.19985     1.29362    -1.54674
C      0.94387    -0.48259     0.93546
C      0.51342    -0.07651    -0.13475
H     -1.94988     1.33562    -0.74267
C      1.42654    -0.94414     2.12926
C      1.85428    -1.35502     3.19390
H     -1.93415    -0.66072    -2.55500
H     -1.01693     2.25911    -2.03003
C     -1.14214     0.09152    -2.44259
C      0.24454    -0.10413    -2.69284
