 14
no_name:-233.056009251621
C     -0.34105     0.93082    -0.15547
H      1.78071    -0.82295     0.82906
H     -1.33560    -0.73981    -1.33356
C      0.71883     0.08554    -0.89262
H     -1.39907     0.83764     2.58548
H     -0.84065     0.74944    -2.29729
H     -0.46921     2.01606    -0.11846
C     -0.23385     0.01412     1.02158
H      1.57145     0.44099    -1.47580
H      0.54518    -1.91946     0.13018
H     -0.46352    -0.73177     2.99019
C      0.80686    -0.86304     0.31603
C     -0.68324     0.13912    -1.40287
C     -0.72626     0.03887     2.25958
