 10
no_name:-267.842409930327
H      0.74252    -1.25757     3.55451
H     -1.49329    -0.85883    -1.04284
C     -0.62089    -0.22070    -0.95907
C      0.53268    -0.43595     1.43188
C      0.44333     0.10373     0.12196
C      0.64307    -0.87154     2.55683
C      0.16850     0.78971    -1.81371
C     -0.27837     1.25759    -0.48594
H     -0.09439     1.05964    -2.83384
C      0.94392    -0.31724    -1.21757
