 16
no_name:-234.318482062172
C      0.60160    -0.63689    -0.90543
H      2.11316    -0.36127     0.68682
H     -0.47488     2.51522     1.20280
C     -0.91038    -0.32162    -0.87578
H     -1.49513    -1.24982    -0.75163
H      0.90881    -1.61918     1.02769
H      0.52049     2.00015    -0.24736
H      0.82540    -1.59137    -1.40610
H     -1.25628     0.15629    -1.80809
H     -0.00179     0.31521     2.34132
C      0.10688     0.36417     1.25365
C      1.04724    -0.62246     0.57358
H     -2.10687     0.63881     0.78234
C     -1.10207     0.54997     0.35841
H      1.13865     0.14256    -1.46936
C     -0.13530     1.68879     0.57256
