 13
no_name:-269.88792464433
C     -0.79094    -0.61458    -0.72562
H     -1.91742     0.87355    -1.84736
H     -0.34263    -0.98321     1.33310
C     -1.21139     0.62508    -1.05271
H     -0.74133     2.68820    -0.21667
H      0.86381     1.41709     1.48054
C     -0.57228     1.61084    -0.16695
C      1.44858    -1.18514     0.26297
H      3.46977    -2.20294    -0.05044
C      0.24079     0.97581     0.70279
H     -1.06648    -1.55954    -1.19346
C      0.15832    -0.51986     0.45542
C      2.52196    -1.72053     0.09607
