 14
no_name:-307.86592815499
H      1.85745     2.11267     2.39155
C      0.48919    -2.94363    -0.93309
C     -0.08050    -1.80926    -0.63741
C      0.07196     0.41750     0.28657
H      2.20616     2.80022     0.78610
C      0.67342     1.33212     0.81208
H      0.50906    -3.77749    -0.21962
C      1.39871     2.42925     1.43973
H      0.72617     3.27573     1.65603
H      0.96907    -3.10631    -1.90674
H     -4.26762    -0.07409    -1.08845
C     -2.05661    -0.43862    -0.63322
C     -3.22951    -0.24448    -0.87394
C     -0.66352    -0.64892    -0.33690
