 10
no_name:-230.436329456292
H      1.00831     1.68341    -0.62198
H      1.93062    -0.98558     0.28813
C      0.53427     0.69628    -0.59511
C     -0.59116    -0.01184    -1.39420
C     -1.27285    -0.59191    -0.14882
H     -2.30444    -0.87702     0.05948
C     -0.18954     0.05772     0.65954
C      0.99077    -0.62539    -0.14419
H     -0.14336     0.42565     1.69222
C     -0.16074    -1.25841    -0.96906
