  8
no_name:-266.557351027633
H      2.06408     0.26857     0.53769
C     -1.41428    -0.23337    -0.19585
C     -1.41744    -0.33109     1.13979
C      1.04052     0.13042     0.19484
C     -0.83221    -0.04856    -1.45504
C      0.53436     0.14358    -1.09423
C     -0.09908    -0.10507     0.92877
C     -1.43495    -0.05088    -2.74682
