 15
no_name:-233.646422446325
C     -1.10651     0.92596    -1.11598
H     -2.37756     2.58028    -1.52168
C     -0.07748     0.45881    -0.62164
H      0.67557    -2.55326     1.20644
C      1.06590    -0.06010    -0.05671
C      1.19463    -0.43617     1.39266
H     -3.22277     1.03752    -1.26021
C     -2.31583     1.49073    -1.69665
H     -2.35201     1.32950    -2.78756
H      1.93467    -0.23592    -0.70426
H      0.27278    -0.15771     1.92808
C      1.49418    -1.92914     1.59897
H      2.01323     0.15466     1.84876
H      2.41881    -2.22458     1.07577
H      1.62294    -2.16342     2.66828
