 10
no_name:-305.267086684198
C      1.07664     0.38941     0.30370
C     -0.57418     0.06013    -1.44096
C     -1.34162    -0.59126    -0.71622
C     -1.59386    -1.24780     0.47718
C      0.50528    -0.30952     1.35404
C      0.66187     0.84791    -1.07191
C     -0.76282    -0.81064     1.34609
H      0.44041     1.92999    -1.05085
C      1.89359     0.04819     1.37800
H      1.49676     0.72675    -1.78234
