 17
no_name:-347.07290677267
C     -0.95472    -0.82900     1.47312
C      0.46232    -0.38383     1.10263
C      0.35647     0.73970     0.14941
C     -0.02005     0.20392    -1.92018
H     -1.67484     1.18020    -0.76208
H      0.14966    -2.67056     0.48714
H      1.21922     2.56139    -0.70756
H     -2.26734    -1.37925    -0.28956
H      1.27822    -0.46312     1.82507
H     -1.45216    -0.98852     2.42698
C     -1.35625    -0.85695     0.01471
C      1.42107     1.52399    -0.40835
H      2.38171     1.43799     0.11387
H     -0.32214    -0.27502    -2.85957
C      1.25353     0.60591    -1.65649
C     -0.18492    -1.63772     0.54128
C     -0.88063     0.41118    -0.71083
