 11
no_name:-268.574072414668
C     -0.70257     0.19025    -0.37314
C     -0.56780    -0.97350     0.39297
H     -1.30360    -1.72984     0.66471
H      2.59406     0.34848     0.44888
H      1.25032    -1.76492     1.38050
H     -2.17826     1.38990    -1.65501
C      1.53326     0.16383     0.27757
C      0.79907    -0.97706     0.76923
C     -1.20605     1.22309    -1.17440
C      0.03433     2.05259    -1.15553
C      0.60023     0.91043    -0.41070
