 12
no_name:-231.83767403244
H     -1.57917    -0.19269    -1.09107
H      4.57915    -1.38332     0.19207
C      1.01290    -0.72288    -0.58620
H      0.61785    -1.21427    -1.48464
C      2.37606    -0.96900    -0.27443
H     -1.68276     1.59849     1.43252
C     -1.20134     0.30583    -0.18990
H      0.58304     0.55683     1.04314
C     -2.02798     1.08675     0.52837
H     -3.07008     1.23802     0.23667
C      0.18905     0.06652     0.14589
C      3.54722    -1.18669    -0.02974
