  9
no_name:-267.218653607503
H      2.05083    -0.17066     0.94690
C      1.01735     0.16115     1.07541
H      0.69189     0.55350     2.04233
C      0.14425     0.08681     0.04169
C      0.48151    -0.42321    -1.29379
C     -0.31210    -0.53661    -2.38031
C     -1.26159     0.50693     0.11181
C     -2.20278     0.47257    -0.85577
C     -1.43464    -0.04681    -1.82799
