 14
no_name:-382.506533943999
H     -0.04925     1.25052     3.30271
C     -0.20954    -0.00232    -2.40461
H      0.02734     1.09429    -5.87995
H      0.65185     0.06905     4.42930
C     -0.44960    -1.13866     1.25315
C     -0.15212    -0.82323     2.66218
C     -0.12208     0.40415    -3.69321
C      0.56491     0.27812     3.34965
C     -0.37678    -0.77796     0.04244
C     -0.28938    -0.37441    -1.22341
C     -0.04197     0.77213    -4.85733
C     -0.75814    -1.97512     2.49041
H      1.44571     1.04802     1.65531
C      1.56976     1.13628     2.76216
