  8
no_name:-229.171864268852
C      1.24164    -0.01366     0.60772
C      1.04858     0.26813    -2.14781
C     -1.44071    -0.02436     0.36649
H      1.67478    -0.97594     0.91277
C     -2.70219    -0.10103     0.60699
C      0.89443     0.13381    -0.86582
C     -0.13820     0.01444     0.15121
H      1.64914     0.87732     1.10448
