 18
no_name:-310.311393771902
C      0.62316     0.61336    -0.96553
H     -1.65092     1.28258     1.04515
H     -0.62476    -1.00510    -1.75836
H      0.54098    -2.32140     0.06065
H      0.31438     2.56788     0.36659
H     -1.53095     0.48500    -1.34960
H      0.98193     1.08279    -1.88321
H      2.42488    -0.90333    -0.58364
H      0.82975    -1.53528     1.62882
H     -1.66016    -1.22702     0.68374
C     -0.78225    -0.61996     0.41587
C     -0.70223     0.72969     1.14495
H     -0.48818     0.63032     2.22125
C      0.43648     1.47662     0.41916
C     -0.70150    -0.17149    -1.04246
C      1.57816    -0.40097    -0.09452
C      0.56095    -1.34729     0.57689
C      1.79558     0.97508     0.31588
