 15
no_name:-233.617457763616
H      0.39039     1.51506     0.66353
H      1.67022    -1.01849    -0.61091
C      0.12918    -1.23875     0.95246
C     -1.67406    -0.07892    -0.49771
H      1.34417     1.52119    -0.83857
H     -3.09854     1.44883    -0.83380
C     -0.53217    -0.95872    -0.39046
H     -0.26100    -0.68442     1.81178
H      0.41851    -2.27084     1.16960
H      2.12741     1.12520     0.71093
C     -2.06594     1.09439    -0.94762
C      0.89237    -0.46055    -0.07616
H     -0.57588    -1.81955    -1.06925
C      1.20104     1.00391     0.12456
H     -1.37488     1.78061    -1.46705
