 11
no_name:-268.61400709176
C     -0.05981     0.16639     0.17130
C      0.85230    -0.82816    -2.01448
H      0.67064    -1.88266    -3.83166
H      2.37869    -1.23894    -3.41030
C     -0.97503     1.15986     2.35627
C     -1.44505     1.67062     3.47811
H     -1.45693     1.08986     4.40814
C      1.32144    -1.33840    -3.13694
C     -0.51990     0.66474     1.26595
C      0.39955    -0.33175    -0.92377
H     -1.84122     2.69233     3.51729
