  9
no_name:-229.872818785672
H      1.78037     0.76688     1.55688
H     -0.58326    -0.41425    -2.04392
C     -1.17349    -0.08915     0.06282
H     -2.24497    -0.28624     0.06662
C     -0.36228     0.29535     1.19954
C     -0.33821    -0.15684    -1.01477
C      0.94079     0.48157     0.92964
C      1.01900     0.19030    -0.55238
C      2.17661     0.27879    -1.16918
