 11
no_name:-343.300224672962
H      2.34074    -1.17009     0.65385
C     -1.10129    -1.11548     0.53285
C      0.10446    -1.29084     0.65416
H      2.27321     1.03015    -0.46992
C      0.11616     1.21798    -0.62625
C      1.34373     0.50712    -0.22895
C     -1.28389     1.07061    -0.58841
C      1.39253    -0.69964     0.38773
C     -1.94600    -0.11183    -0.00160
C     -2.86546     0.71684    -0.44972
C     -0.54573     2.25986    -1.18020
