 14
no_name:-382.668180657389
C      0.86635     1.08897     0.20109
C     -1.78702     1.19314    -0.29152
H      4.94946    -3.64614     0.61519
H     -4.56291    -0.46464    -0.95902
C     -4.25461     0.57629    -0.81342
C     -2.99571     0.88919    -0.54835
H     -5.02747     1.34805    -0.89635
C      3.46471    -1.90419     0.45787
C      4.25440    -2.83043     0.54009
C      1.79569     0.07106     0.29122
C     -0.53427     1.49334    -0.02980
C      2.58095    -0.86960     0.36657
C      0.53827     2.38515     0.24667
H      0.87870     3.40943     0.39501
