  9
no_name:-155.078930569629
H      1.41739    -0.78801     1.03510
H     -0.93628    -1.10612     0.30147
H     -0.52974    -0.00432    -2.35999
H      1.15448     0.98991     1.11805
C      0.96822     0.07962     0.52690
H     -1.20106     0.67998     0.38692
C     -0.51720    -0.11716     0.04832
C     -0.02290     0.02454    -1.39497
C      1.22748     0.18782    -0.95891
