 12
no_name:-231.838269880806
C     -1.91062     0.66247     0.89388
H     -3.86694     1.46738     0.70248
H      1.73280    -0.40046    -1.77951
C     -0.67340     0.25251     0.32747
H      3.59384    -1.32587    -0.50259
H      2.61888    -1.16414     1.08676
C      1.63838    -0.51853    -0.69237
H     -2.89016     1.30760    -0.88595
C     -2.94350     1.17304     0.19767
C      2.67130    -1.03010     0.00302
C      0.40209    -0.10689    -0.12514
H     -2.00590     0.54391     1.98088
