 19
no_name:-385.732810287113
C      1.54660    -1.06644    -1.33871
H      3.20552    -1.26151     0.23377
H     -1.80696     0.36131     1.27302
C     -1.12757    -1.58152    -0.90953
H     -2.04626     2.11004     1.52398
C      0.02613    -0.79057    -1.03363
C      1.63962     0.26422     0.49776
C      0.47308     0.59297    -0.35665
H     -2.99467    -2.87831    -0.63107
C     -2.11780    -2.27084    -0.75371
C      2.30206    -0.75562    -0.10672
C     -0.57472     1.61928    -0.01419
H      1.80014    -1.85908    -2.04395
H      1.89308     0.75812     1.43608
H     -1.30034     1.66460    -0.84215
H     -0.08934     2.61067     0.02210
C     -1.29410     1.33519     1.30723
H     -0.58810     1.31023     2.15324
C      0.76084     0.16224    -1.79195
