 17
no_name:-272.359702999453
H     -1.54054     1.73519    -0.10721
C     -0.25036     0.13107    -0.76777
H      0.18363    -1.95116    -0.32521
C      0.57870    -0.94601    -0.08514
H      1.20443     0.76643     2.96171
C     -0.51723     0.53142     1.54039
H     -1.26782     0.58072     2.33542
H      1.56409     1.31487     1.23797
H     -0.98102     1.05552    -2.57868
H      0.42701    -1.46511     2.11414
H      0.70114     0.46972    -2.67452
H      1.62801    -0.93586    -0.43437
C     -0.29901     0.25385    -2.25744
C     -0.87615     0.90272     0.13946
C      0.45236    -0.63402     1.40444
H     -0.63266    -0.69099    -2.72358
C      0.94663     0.69868     1.90036
