 11
no_name:-343.292898124581
H      0.02157     2.27158     1.65978
H     -1.83300    -1.66473    -4.10073
C      0.11867    -0.31270     0.16957
C      0.62119     0.07663     1.41402
C      0.49388     1.37776     2.07086
C      1.73032    -0.42083     2.17923
C     -0.92051    -1.03004    -2.09373
C     -0.37728    -0.65089    -0.90115
C     -1.40352    -1.36587    -3.16247
C      1.54403     1.26225     2.99905
C      1.77816    -0.00206     3.45609
