 11
no_name:-305.851758916418
H     -0.67990    -0.04357    -2.02669
C     -0.29874    -0.77661    -1.31801
C      0.75701    -1.74542    -1.27938
C      0.43264    -2.18133     0.05338
H      0.82481    -2.90504     0.76600
C     -0.09780     1.46981     0.85475
C     -0.13731    -0.86290     0.11346
C     -0.29586     2.71615     0.58401
C     -0.49146     3.96666     0.31446
C      0.09203     0.18535     1.10350
H      0.40418    -0.11289     2.11154
