  8
no_name:-266.628295655605
C      1.74799    -0.58846     1.91445
C      1.17769    -0.62037     0.64284
C     -1.63472     0.55239    -1.79501
H      1.61936    -0.15130     2.90454
C     -2.56858     0.94662    -2.59421
C     -0.68572     0.15223    -0.98595
C      0.22701    -0.22747    -0.19784
C      2.38665    -1.36237     1.00546
