 19
no_name:-385.756294895538
C     -2.08657     1.46580     0.79011
C     -1.71405     0.67342    -0.40921
C      0.23037    -0.70998    -1.17667
C     -1.19263     0.95043     1.91347
H     -1.44029     0.78717     2.96303
H      0.87291     2.27887     2.07911
H      1.99759    -1.10484    -0.00551
C      1.51354    -1.27759    -0.97405
C     -0.49433     0.05006    -0.23666
H      1.76555    -2.21960    -2.88713
H      3.18486    -2.42384    -1.68906
C      2.19396    -2.01632    -1.90079
H      0.71605    -0.22563     1.65819
H     -0.24667    -0.87371    -2.14930
H     -2.28431     0.69945    -1.33854
H     -3.14551     1.68610     0.95752
C     -0.01638     0.39959     1.14262
C      0.06054     1.88965     1.45592
C     -1.14265     2.60448     1.23900
