 13
no_name:-269.831377678149
H      2.20311     2.03992    -0.54872
C      1.62061     2.11883     0.37392
H      1.86183     2.93437     1.05995
C      0.29899     0.15747    -0.22916
C      0.64077     1.23728     0.64828
H      0.31048    -0.03957    -2.47780
C     -1.45842    -1.79775    -0.22064
H     -3.12789    -3.30382     0.22075
C     -2.34556    -2.60035     0.00618
H      0.06118     1.32238     1.57404
C     -0.43883    -0.89581    -0.51599
H      1.52972    -1.12768    -1.61842
C      0.62117    -0.51013    -1.53090
