 14
no_name:-158.234038166483
C      1.91696     0.12275    -0.16066
C     -0.59378     0.60501    -0.09321
H      2.14078     0.91676     0.57188
H      0.33087    -1.26135    -0.67205
C     -1.99791     0.03894     0.11564
H      2.02276     0.56460    -1.16599
H     -2.77063     0.81788     0.01384
C      0.51289    -0.44315     0.04909
H      2.68993    -0.65547    -0.05531
H      0.44467    -0.90672     1.05056
H     -0.41209     1.42291     0.62834
H     -2.10300    -0.40650     1.11947
H     -2.22274    -0.75231    -0.61956
H     -0.52516     1.06900    -1.09447
