 17
no_name:-384.526499492243
H      0.20240     1.79668     2.83407
C     -0.13587    -0.19713    -2.69171
H      0.89744     1.60577    -5.70964
H      1.81252    -0.37896     3.02981
C     -0.32326    -0.85191     0.78595
C      0.71983    -0.45059     2.87707
C      0.25196     0.47843    -3.82160
C      0.13502     0.83444     2.32378
C     -0.87735    -1.48966    -0.46402
C     -0.47827    -0.79539    -1.68621
C      0.59052     1.07535    -4.82812
C      0.35311    -1.41484     1.79849
H     -0.95061     1.31651     0.48809
C     -0.45382     0.58727     1.13225
H      0.28192    -0.72067     3.85578
H     -1.98313    -1.50424    -0.41140
H     -0.55753    -2.54386    -0.51111
