 10
no_name:-267.83114278249
C      0.07496    -0.45013    -0.18848
C     -1.37393    -0.14772    -0.48363
C      2.57368     2.17598     1.36519
C      1.75428     1.29944     0.85116
H     -1.63746     0.88717    -0.22631
H     -1.56775    -0.31986    -1.55383
C      0.92639     0.46468     0.34926
H     -2.01141    -0.84019     0.08816
C      0.69599    -1.66077    -0.42538
C      1.30525    -2.77058    -0.64435
