 14
no_name:-382.712684844034
C     -1.88421     3.04771     3.32313
H     -0.02185    -2.32903    -1.08437
H      1.72134     0.03596    -2.04740
H      2.36033    -3.77978    -4.36588
C     -2.41096     3.70607     4.20602
H     -2.87451     4.28524     4.98265
C      1.35745    -2.54096    -2.72143
C     -1.29621     2.31342     2.33817
C     -0.76654     1.64974     1.44744
C      0.97933    -0.49080    -1.43518
C      0.34769     0.24677    -0.41559
C      0.71975    -1.80159    -1.69517
C      1.88886    -3.19955    -3.59472
C     -0.18121     0.91641     0.46847
