 15
no_name:-271.108342682718
H     -1.26174     0.44037    -1.11817
C      0.56563     0.55329    -0.08363
H     -2.78636    -2.48299     0.79734
C     -1.20553    -1.10059     0.43004
H      1.85557    -0.38768     1.65070
C      1.36216     1.70961    -0.71791
H      0.90688     2.70932    -0.60660
H     -0.57873    -1.51434     1.22929
H     -3.07159    -1.25898    -0.58313
H      1.64300     1.56061    -1.77532
C     -2.41547    -1.64304     0.20492
H      3.41195     1.74483     0.53794
C      1.68548     0.32712     0.84226
C     -0.64790     0.01476    -0.31550
C      2.42361     1.33673     0.31607
