 10
no_name:-230.509465708451
H     -2.45186     0.84475     0.44359
C     -0.39672     0.38238     0.45928
C      0.51970    -0.36054     0.14760
C     -1.49611     1.26786     0.79660
C      1.58377    -1.21982    -0.18282
C      1.88586    -1.63118    -1.43114
H     -1.36669     2.24442     0.29962
C      2.19130    -2.03547    -2.61048
H     -1.56811     1.43666     1.88282
H      2.20604    -1.56504     0.66003
