 11
no_name:-343.34235941319
C      2.49536     1.09887    -0.19932
C     -1.23578     0.46552    -1.18629
C     -0.74737    -0.28607    -0.18052
C      1.28615     1.22793    -0.71403
H     -2.07014     0.63039    -1.86659
C      0.07106     0.85225    -0.97692
C     -0.54032    -1.10722     0.90389
C      0.75650    -1.02755     1.40509
H     -1.35923    -1.64382     1.39034
C      1.98082    -0.72104     1.45892
C      2.48882     0.36900     0.87245
