 17
no_name:-347.212842539281
C     -0.19236     1.09879    -0.22016
H     -0.11762    -2.16754    -1.25000
C     -0.15655     2.20557     0.78452
H     -0.24687     3.18501     0.29179
H     -0.97902     2.12244     1.51659
C     -0.30763    -0.16912    -2.15853
C     -0.16665    -1.08332    -1.16477
H     -0.42584     2.10979    -2.14346
C     -0.32379     1.18570    -1.57179
H      0.10329    -0.17592     2.20788
H     -0.39627    -0.38202    -3.22489
H      0.33097    -4.46683     2.17324
C      0.16064    -2.24384     1.64979
H      0.78556     2.20668     1.36030
C     -0.08596    -0.34462     0.10429
C      0.25066    -3.42387     1.93012
C      0.05921    -0.86161     1.35357
