 11
no_name:-268.576250062081
H      1.24348     0.93582     2.12733
C      0.54204     1.19626     0.05628
H     -0.07670     3.04324    -1.29805
H     -1.62394    -0.95426    -1.64856
C      0.86304     0.45542     1.22025
C     -0.39525     0.71589    -0.90963
H     -0.14865    -2.47804    -0.15391
C     -0.21364    -1.39588     0.02095
C     -0.89747    -0.57613    -0.92625
C      0.38599    -0.84320     1.16237
C      0.03544     2.03337    -0.89897
