  9
no_name:-304.632718567871
C     -1.35022     0.30717    -0.89007
C     -1.72119    -0.78777    -0.25122
C     -0.24765     1.03336    -0.92974
C     -0.67056    -1.28313     0.58581
C      0.76413     0.48998    -0.07460
C      0.59703    -0.67386     0.70642
H      1.38289    -1.06970     1.35031
C      1.06299     1.64639    -0.78941
C     -1.87412    -1.98229     0.56286
