 18
no_name:-385.241112996276
C     -0.83155     1.79425     0.41297
C     -0.24289    -1.22707    -1.81108
C     -0.55059     0.63834    -0.24789
H     -1.53579     2.56400     0.09305
H     -0.06169     2.67245     2.36610
C      0.41395    -0.12734     0.59756
H     -0.17181    -3.03189    -0.62122
H     -2.17244    -0.03226    -1.60111
H      1.46885    -1.90725     1.06838
C     -0.04279     1.84312     1.65694
C      0.69726     0.70714     1.77347
C      0.45683    -2.16653    -0.90758
H      1.38356     0.44186     2.57741
H      1.36396    -2.58391    -1.37903
C     -1.07969    -0.01990    -1.47083
H      0.36409     0.23413    -3.48190
C      0.83225    -1.38973     0.34165
C     -0.17191    -0.25347    -2.67003
