 12
no_name:-231.890395482297
C     -1.29898    -0.84579     0.99541
H     -1.52740    -0.45302     1.99040
H      0.34530     1.50839     1.44697
C      0.01369    -0.67402    -1.15553
C     -0.38759    -0.25221     0.20096
H     -1.83977    -1.73948     0.67091
H      1.91116     2.03663    -0.65236
C      1.20064     1.21393    -0.55818
C      0.95405     0.19795    -1.60060
H     -0.39413    -1.53847    -1.67920
C      0.40811     0.95160     0.51221
H      1.45777     0.16992    -2.56804
