 12
no_name:-306.558509118568
H     -2.80964    -1.02319     0.15397
C      0.43597     0.29477     0.18249
H      4.16436     2.04478     2.81077
H     -1.92449     0.86696    -2.33990
H     -0.70788    -2.13550    -2.06414
C      3.34451     1.66014     2.23447
C     -2.00618    -0.75949    -0.51973
C     -0.62420    -0.20413    -0.56976
C     -1.05295    -1.26378    -1.52566
C      2.41421     1.22225     1.57805
C     -1.60480     0.09812    -1.65028
C      1.37027     0.73210     0.84254
