 10
no_name:-193.026631091623
H     -0.02864     2.68542    -0.86282
C      0.48666    -0.57553     0.28689
C      1.46805    -1.35976     0.83352
H      1.23247    -2.10526     1.59894
C     -1.41579     1.01789    -0.75728
C     -0.40533     0.11899    -0.21240
H     -1.61202     0.75289    -1.82805
H     -2.40490     0.86312    -0.28412
H      2.51121    -1.25821     0.51939
C     -1.11606     2.46580    -0.90650
