 18
no_name:-347.842341466289
C     -1.97784     1.42099     1.05300
C     -2.02144     0.75303    -0.22311
C     -0.04957    -0.58724    -1.31508
C     -0.85013     1.07254     1.75911
H     -0.60288     1.40097     2.76974
H      1.73107     0.99233     0.40405
H      2.02532    -0.53239     1.27851
C      1.29268    -0.74985    -0.79658
C     -0.86063    -0.02295    -0.33712
H      2.20923    -1.84401    -2.38594
H      3.31960    -1.42103    -0.94318
C      2.33074    -1.37338    -1.40655
H     -0.34538    -0.95502     1.50464
H     -0.33303    -0.80717    -2.34601
H     -2.77014     0.92428    -0.99757
H     -2.74163     2.12088     1.40034
C     -0.12470     0.00503     0.98976
C      1.35748    -0.03385     0.56055
