  8
no_name:-191.80797129298
C      0.34623    -1.63283     0.93580
C      0.21764    -0.57171     0.19535
H     -0.91379     1.68041    -1.82352
C     -0.21014     0.82260     0.22310
H      0.67349    -2.66681     0.87307
H      0.22384     1.59632     0.87717
C     -0.49211     0.92940    -1.15801
C      0.45421    -0.07962    -1.25545
