 16
no_name:-383.895521802344
H      2.07431     1.82859    -0.44693
C     -0.70943    -2.79112     0.69138
C      0.75652     2.27714    -2.20790
H     -1.93232    -1.27526     5.18650
C      1.60361     1.36084    -1.32888
C      0.25296     0.64618    -1.04158
C     -1.30388    -1.73620     3.03223
H      1.00770     3.14107    -2.82626
H     -1.44018     1.76143    -2.24379
C     -0.40066     1.62785    -1.93436
C     -0.91987    -1.96902     1.71324
C     -0.45396    -1.39878     0.42755
C     -0.11049    -0.38695    -0.31323
H      2.35204     0.74000    -1.85112
C     -1.63679    -1.48763     4.17570
H     -0.71004    -3.81709     0.32526
