 16
no_name:-346.542076596004
C     -0.10489     0.81230     0.30822
H      1.98593     2.27911    -1.15704
H      0.27735    -2.98879    -1.17066
C      0.90358     0.50134    -0.70001
H      1.59988    -2.03730    -2.08987
H     -1.71575    -2.29841     0.85176
C     -0.47154     1.97538     0.98479
C      0.44180    -0.92779    -0.70460
H     -2.17621    -0.71265     1.73953
C     -0.79465     2.99482     1.57570
C     -0.58193    -0.56676     0.33341
C     -1.54582    -1.23125     1.01302
C      0.79068    -2.04119    -1.35466
H     -1.07903     3.89011     2.09624
H      2.50704     0.73686    -2.08730
C      1.85310     1.21218    -1.35235
