 15
no_name:-271.087343691468
C     -1.14608     0.93528     0.72591
H     -2.68847    -0.32084    -0.30306
H      1.87926    -1.59463    -1.74462
C     -0.03136     0.18001     0.22069
H      3.93549    -2.07653    -0.53225
H      3.31226    -1.13201     0.95826
C      2.00409    -1.21580    -0.72171
H     -2.32392     2.76011     0.17017
C     -2.57014     0.54238     0.35672
C      3.14400    -1.48823    -0.06155
C      0.91427    -0.46126    -0.20227
H     -1.00795     1.33104     1.73858
H     -3.32751     0.62646     1.14098
H     -1.69196     1.79816    -1.26734
C     -1.98083     1.79525    -0.21331
