 12
no_name:-306.382013089659
C     -0.94445     0.44529    -1.10643
H     -3.24189     0.10101    -1.58619
C      0.64753    -0.20346     0.57763
H      2.76884    -0.24340    -0.19010
C     -0.30769    -0.83984    -0.49997
C     -2.29602     0.03325    -1.06143
H      1.54828    -1.20163     2.49588
C     -1.67735    -0.55335     0.10650
H      2.35013     1.26251     0.79234
C     -0.70682     0.57796     0.42552
C      2.10147     0.21437     0.55839
C      1.44694    -0.63165     1.57623
