 18
no_name:-310.373403771438
C     -1.55322     1.12245     0.53226
C     -0.64750    -0.01006     0.72344
C      1.41349    -1.12593     0.02147
H      0.66891     2.27959    -0.38863
C      0.19501    -1.82833    -0.52559
H      1.81922    -1.68259     0.88796
H      0.61671     0.98167    -1.60276
H     -2.99922     2.86990     0.25236
H      1.36072     0.62161     1.36374
C     -2.32253     2.04704     0.38403
C      0.87359     0.26751     0.44172
C     -0.93550    -1.21888    -0.15659
H      0.24556    -2.74558    -1.11802
H     -1.95179    -1.54031    -0.39324
C      1.09308     1.30247    -0.66209
H     -0.75134    -0.32669     1.78137
H      2.23608    -1.04880    -0.70971
H      2.17021     1.43453    -0.85245
