 15
no_name:-308.530744131674
H     -1.74237    -2.63805     1.11634
H     -1.58503     0.08362     2.64973
C     -1.37951    -0.61471     1.82463
H      0.70894     1.86627    -3.10333
C      0.11578     0.34535    -0.17152
C      1.59319     0.30246    -0.27913
H     -2.51699    -2.19840     2.76874
H      2.95103     1.03423    -1.82888
C      1.93691     0.90146    -1.44898
C     -1.91492    -1.90473     1.90704
C     -0.62290    -0.13222     0.81543
H      2.24760    -0.14069     0.46971
C     -0.36768     1.02996    -1.39371
C      0.72013     1.35293    -2.14064
H     -1.41730     1.21805    -1.61358
