 18
no_name:-385.225903661169
H     -4.97480     4.18429     0.08907
C     -3.17470     2.76399     0.08562
C      0.82438     0.04136     1.28655
C     -1.14602     1.14980     0.07364
C     -4.13349     3.51731     0.08994
H      2.57415    -1.21627     1.62583
H      1.43600    -3.01418    -1.76553
C      1.79250    -0.83939     0.96427
H      2.53506    -0.88570    -1.04208
C     -0.03139     0.27489     0.09783
C     -2.10157     1.91453     0.08508
H      0.66384     0.52587     2.25034
H      0.02313    -0.52793    -1.93765
C      0.44412    -0.48159    -0.93296
C      1.55210    -2.77542    -0.69668
C      1.65160    -1.25576    -0.47937
H      0.68661    -3.18679    -0.15467
H      2.45993    -3.28166    -0.33239
