 16
no_name:-308.999624512224
C     -2.39256     1.75552     2.33112
C      0.37555     0.55347    -0.16987
C      0.51898    -0.84923    -0.67448
C     -1.45714     1.35036     1.49036
H     -0.19834    -1.36591    -2.83596
H      1.17785    -0.25308    -2.69919
H      2.72980    -0.82352    -0.66712
H     -0.26974    -1.48613    -0.25055
H      2.15851    -2.23116     0.25176
H     -2.44844     2.79859     2.66275
C      0.66889    -1.10652    -2.20491
C     -0.55517     0.96736     0.67640
H     -3.15129     1.06513     2.71680
H      1.11424     1.27944    -0.54258
C      1.90415    -1.56064    -0.58681
C      1.73384    -2.15280    -1.96710
