 10
no_name:-230.615884586551
C      0.08341     0.79928    -0.35138
H     -1.70270     0.69646    -1.63215
C      0.94208     0.12716     0.54121
H      1.79476     0.66724     0.96373
C      0.74336    -1.22323     0.91289
C     -1.03939     0.17253    -0.94091
C     -1.14283    -1.14311    -0.51238
C     -0.37856    -1.74140     0.28207
H      0.29088     1.84456    -0.59968
H      1.41051    -1.74124     1.60492
