  8
no_name:-229.21782522792
H     -1.98790    -2.07324     1.52052
C     -0.78938    -0.57639     0.26866
C     -1.42840    -1.37145     0.92878
C     -0.08215     0.35639    -0.50265
C      1.07453     1.14079    -0.40103
C      1.43857     0.55310    -1.65588
H      1.39734     1.99778     0.19495
C      0.00636     0.74389    -1.89607
