 12
no_name:-194.384998539941
H      2.29439     0.63331    -1.10625
H     -1.22398     0.51814    -0.93774
C     -1.57221    -0.97373     0.48531
H      1.88043     1.86288     0.09226
C     -2.35065    -1.84124     1.07446
C      1.43971     1.11938    -0.59849
H     -2.46928    -2.86825     0.69746
C      0.59437     0.12675     0.12818
H      1.06429    -0.46911     0.91810
H      0.86347     1.66747    -1.36068
C     -0.76303    -0.08756    -0.14315
H     -2.94299    -1.58413     1.96535
