 12
no_name:-306.549678059696
H     -1.97528     0.51585    -2.25737
H      1.79090     0.85710     1.93066
H      2.19832    -0.68392    -2.44595
C      0.03279    -0.20802    -1.86776
C     -1.25500    -0.10758     1.18751
H      1.42689    -0.50818     3.16236
C     -0.10855    -0.04375     1.79940
C      1.08923     0.10810     2.31958
C      1.18515    -0.45690    -2.17238
C     -1.78462    -0.07884    -0.25487
C     -1.30015     0.08322    -1.50854
C     -2.59924    -0.28189     0.83157
