 11
no_name:-268.568374162782
C      0.78005     0.38365    -1.30994
H      0.79640    -1.69957    -0.80035
H      1.77004     2.24844    -2.18791
H     -2.20380    -1.16441    -1.39367
C     -0.96106    -0.16560     2.95860
H     -0.99925     0.05308     4.00956
C      0.15826    -0.80268    -0.75656
C     -0.83515    -0.69217     0.40508
C     -0.92479    -0.41176     1.76856
C      1.30556     1.37217    -1.77670
C     -1.33777    -0.97696    -0.76395
