 14
no_name:-307.976125305672
H      2.79765    -0.53992    -1.17535
H      0.62402    -2.01058    -1.60763
C     -2.08585     0.57804     0.95375
H     -2.45062    -1.32462    -0.27967
C     -0.41481    -0.47908    -0.24726
H      2.16504     1.54393     0.45988
C     -1.73767    -0.56794     0.05433
H     -3.08322     0.75919     1.35561
C      0.12948     0.69776     0.42837
H     -0.90942     2.22942     1.78851
C      1.80035    -0.35894    -0.77325
C      1.45220     0.78697     0.12626
C      0.68957    -1.11167    -0.99513
C     -0.97499     1.33056     1.17593
