 11
no_name:-193.797552960309
H      0.79412     2.49085     0.82422
H     -1.83800    -3.57024     0.11846
C     -1.23933    -2.68525     0.01422
C     -0.56391    -1.68177    -0.10274
C     -0.15397     0.73423     0.01462
H      0.24566     2.66786    -0.84636
C      0.69846     1.95323    -0.13607
H      1.27931    -0.69137    -0.59973
C      0.25272    -0.52281    -0.24830
H     -1.18220     0.88499     0.36472
H      1.70936     1.70494    -0.49423
