 14
no_name:-307.902237201993
C      0.14961     0.52033     1.15755
H      0.76924    -1.42382    -1.63638
C      0.64884    -0.56798     0.38417
H     -2.22928     1.63135    -0.96541
H      2.72569    -1.22849     0.97673
H     -1.42063     2.06006     1.35858
C     -0.74653     0.11180    -1.41383
C      1.73019    -0.93894     1.34510
H     -1.11495     0.00158    -2.43727
C      0.30643    -0.68435    -0.97787
H      1.39250    -1.60671     2.14921
C     -0.95120     1.30127     0.72767
C     -1.38828     1.05982    -0.56351
C      1.48420     0.57458     1.63630
