 10
no_name:-267.896876362633
C      1.32569    -1.22096    -0.68593
H      2.78488    -2.79973    -1.46598
C     -0.33881    -0.03284     0.91694
C      2.09884    -2.05859    -1.10049
H     -1.45529     2.74410    -0.33306
C     -1.05830     1.80504     0.05160
C     -1.22564     1.09006     1.19478
H     -1.81461     1.21861     2.10252
C      0.42249    -0.24708    -0.20748
C     -0.11146     0.94240    -0.64365
