 11
no_name:-305.864140580888
C     -0.62497    -0.20236     0.88429
C     -1.47069     0.95389     0.79304
H      3.15737    -0.21771    -1.69520
C      1.19054    -0.47994    -1.01455
C     -2.35424     1.67566     1.50422
H      2.31676    -1.82317    -2.17031
H     -0.98386    -1.15868     1.29184
C      2.26585    -0.85634    -1.65374
C     -3.14579     2.40690     2.19445
C      0.11952    -0.08279    -0.37252
C     -1.12600     0.63228    -0.57146
