 13
no_name:-269.910072773081
H      1.83162     1.61897     0.94820
C      1.10645     0.89562     0.56584
C     -0.88761     0.29306    -0.66433
C      0.31917    -1.43382     0.34891
H      2.08505    -0.83490     1.43039
C     -0.80036    -1.06665    -0.43315
H      0.47739    -2.48898     0.58878
H     -1.50653    -1.81621    -0.80033
C     -0.00144     1.20483    -0.20011
C      1.23929    -0.48711     0.83072
C     -1.14614     1.72910    -1.01768
H     -1.96529     2.27226    -0.52092
H     -0.96525     2.07740    -2.04667
