 13
no_name:-307.188557653783
H     -0.66013     2.65690     3.20170
C      0.31274     1.06362     1.78216
C      0.41783    -0.98590    -1.29448
H      1.84447    -0.96911     0.37123
C      0.00839     1.90953     2.77205
C     -0.86300    -0.22025    -1.57012
H      0.82994    -1.72969    -1.97810
H     -1.74043    -0.88387    -1.68455
C      0.06276     0.43289     0.51501
C      0.93346    -0.60417    -0.10605
C     -0.95756     0.62696    -0.35074
H     -0.80827     0.38555    -2.49386
C      1.19336     1.15283     2.90525
