 13
no_name:-195.034748287676
C     -1.92821     1.08184    -0.19246
H     -2.61357     1.75432     0.33133
H      1.91241    -2.41683     1.08268
H     -2.37246     0.36759    -0.89430
H     -0.09382    -0.42836    -1.38095
C     -0.60992     1.12896     0.01225
C      1.22216    -0.56054     0.31761
C      1.30078    -1.89288     0.34265
H     -0.20754     1.85624     0.73023
C      0.40593     0.24278    -0.66326
H      0.75577    -2.51124    -0.37898
H      1.77974     0.02086     1.06430
H      1.09494     0.88393    -1.24903
