 14
no_name:-382.732953163853
H      0.80453     1.84315     1.64985
C      0.57999     1.14629     0.84060
C      1.09556     1.35478    -0.42616
C     -0.24613     0.03670     1.13097
C      0.00751    -0.64780    -1.26166
C      0.80926     0.45898    -1.47629
H      1.22469     0.63933    -2.47065
C     -0.55236    -0.92310     0.00685
H      1.73124     2.22354    -0.61341
C     -1.38430    -2.01611     0.35628
C     -1.55986    -1.31144     2.53291
H     -0.21094    -1.33852    -2.07777
C     -1.83151    -2.16734     1.52624
C     -0.83445    -0.29116     2.37737
