 13
no_name:-269.769819052983
C      0.47836    -0.21674    -0.86135
H     -1.78663    -2.69166    -0.03273
H     -1.76693    -1.23218     1.02804
H      0.01793     3.13401    -0.96332
C      0.92955     1.10261    -0.62325
H      0.14455     2.69344     0.82321
H     -0.52229    -2.49321     1.20004
C     -0.26049    -1.28139    -0.50333
C      0.49985     2.50048    -0.20300
H      2.94616     2.16873    -0.32161
C     -1.14718    -1.95009     0.47022
C      0.44781    -1.36386    -1.71875
C      1.88211     1.97741    -0.43696
