 17
no_name:-384.556891221882
C      0.33401    -0.23986    -0.77061
C      0.79125    -1.06393    -1.75080
H      1.66077     0.46964    -3.01648
H      2.48363    -1.03724    -4.77221
C     -2.19739     2.25024     4.31347
C     -2.63124     2.94256     5.23684
H     -3.00766     3.54327     6.04322
C      1.49752    -0.61154    -2.92939
C     -0.36659    -0.71100     0.39993
C     -1.28263     0.78796     2.35898
H      0.62191    -2.14377    -1.65486
H      0.49747     0.83998    -0.85507
C     -1.72782     1.49717     3.31104
H     -0.52722    -1.79807     0.47391
C      1.95428    -1.42682    -3.89941
H      1.80976    -2.51068    -3.84566
C     -0.82608     0.06233     1.38681
