  8
no_name:-266.556282084775
C      0.49207     2.04363     0.65643
C      0.55102     0.69753     0.55333
C      0.07449    -0.50014     0.04542
C     -0.99436    -1.20518    -0.55792
H      0.01193     2.96821     0.33483
C     -0.74007    -2.59116    -0.87538
C      0.33672    -1.85365    -0.26437
C      1.48958     1.40077     1.39949
