 15
no_name:-233.674455898724
C     -0.36941    -0.38651    -0.04277
H     -1.44277    -2.21894     0.32609
H     -1.28950    -1.80859    -1.39433
H     -0.41150     1.10121    -1.64828
C      1.66877     0.59539     0.62600
C     -1.42856    -1.37236    -0.38070
H     -2.43308    -0.91277    -0.38091
C      0.91694    -0.71506     0.66463
C      0.98580     1.54466    -0.02766
H      1.33086     2.56956    -0.18592
H      2.65357     0.73089     1.08012
H     -1.19959     1.63451    -0.16801
C     -0.34132     1.03314    -0.53915
H      0.75528    -1.08084     1.70191
H      1.48496    -1.53234     0.16563
