 13
no_name:-232.376857194514
H      0.73288     1.27859     1.41295
C     -1.20234    -0.91919    -0.38319
H     -0.03898     1.85421    -0.08213
H     -2.02939    -1.10467    -1.06718
H      0.61015    -2.18682    -0.91340
C      0.29027    -1.28246    -0.38791
H      1.34969     0.37176    -1.36111
C     -0.97153     0.06440     0.77410
H     -1.83594     0.42418     1.33948
C      1.14407    -0.01237    -0.34801
C      0.24290     0.94938     0.48186
H      2.11536    -0.19691     0.13983
C     -0.58384    -1.38106     0.82383
