 16
no_name:-309.146969961235
H      2.71645     1.84750    -0.71707
C      1.79667     1.41440    -0.31929
C      0.55623     2.16197    -0.09582
C      0.21305    -0.03023     0.52656
C     -0.38744     1.32184     0.40576
H     -1.41544     1.55975     0.68192
H      2.33198    -0.69783     0.00683
H     -2.03030    -1.50071    -1.20989
C      1.60966     0.11853     0.04627
H      0.42930     3.22592    -0.30487
C     -0.59518    -1.31832     0.34791
H     -0.16837    -1.28793     2.61983
H     -0.52923    -2.40263    -1.47902
C     -1.25875    -2.10691    -0.70703
H     -1.72959    -3.01320    -0.29635
C     -0.22469    -1.06434     1.55828
