 11
no_name:-231.118816463601
H     -0.07003     2.20537     2.32471
C      0.37916    -0.61800     0.59498
H      0.47582     0.32389    -2.34366
H     -0.98002    -0.68609    -2.25698
C     -0.01716     0.25898     1.50443
C      0.45184    -1.06111    -0.72888
C     -0.38978     1.15560     2.38941
C      0.11390    -0.69273    -2.11886
H      0.56098    -1.40245    -2.83041
H     -1.04182     0.89399     3.23469
C      1.05091    -1.87467     0.18502
