  8
no_name:-117.059755112017
H     -0.95253    -1.17094     0.82101
H      0.55972    -1.34390    -0.11532
C     -0.17454     0.69780     0.05596
H      2.04865     1.03138     0.03503
H     -1.08908     1.30870     0.12143
C      0.99285     1.30539     0.07780
C     -0.39214    -0.79582    -0.05281
H     -0.99143    -1.03659    -0.94785
