 15
no_name:-271.15817763083
H      1.26817    -0.89886     1.90001
H     -0.60966    -2.11957     0.50522
H     -2.78091    -1.56350    -0.74134
C      0.01679    -0.15047     0.15422
H      2.38241     1.53117     1.84071
C      1.03371    -0.08041     1.21908
H      1.22749     2.96002    -0.15529
C     -0.75511    -1.22822    -0.11838
H     -0.60235     1.45170    -1.35158
H     -1.56559    -2.17565    -1.86530
C     -1.79432    -1.33663    -1.18403
C      1.59603     1.15657     1.18386
C      0.03105     1.16196    -0.51458
C      0.96930     1.93119     0.10105
H     -1.88673    -0.42001    -1.78230
