  9
no_name:-267.308019609152
C      1.51272     0.13121     1.32952
C     -3.20811    -0.45091    -3.01262
C      2.48073     0.25264     2.22351
C     -2.26385    -0.33578    -2.14258
C     -0.37344    -0.10015    -0.40415
H      2.43982     1.01704     3.01023
C      0.57904     0.01406     0.46973
C     -1.30635    -0.21733    -1.26329
H      3.35894    -0.40568     2.20982
