 12
no_name:-306.570193419503
H     -0.67710     2.50663     0.46497
H     -1.97495    -3.80935    -3.29929
C      0.00035    -0.31278    -0.50852
C      1.20382     2.26360     1.69975
H      0.61225     0.20954     2.44288
C     -0.48521    -1.19477    -1.21809
C     -1.04142    -2.16817    -1.99426
C     -1.53853    -3.04348    -2.68704
H      1.02303     2.90597     2.56352
C      0.30053     2.02815     0.61332
C      0.95927     0.85444     1.62410
C      0.62131     0.67489     0.23406
