 12
no_name:-381.453702254802
C     -1.59563     0.39667    -0.54183
H     -0.63063    -2.78961    -1.28794
C      0.47138     2.11448     1.02038
C     -0.67926     2.22466     0.54397
C     -0.32408    -1.85661    -0.80424
C     -1.13146    -0.74260    -0.75426
C      2.02036     0.20239     1.01205
C      1.72351    -0.97330     0.44436
C     -1.77077     1.70144    -0.13897
C      1.55104     1.34967     1.22348
C      0.90818    -1.68185    -0.18499
H     -2.68535     2.26799    -0.34124
