 14
no_name:-270.473653411125
C     -1.57699     1.53228     1.54954
C     -0.95804     0.56433     1.05099
C      0.56960    -0.44444    -0.57993
C     -2.24196     2.57281     2.08545
H     -2.88347     2.44363     2.96321
H     -2.15980     3.57797     1.65941
H      1.11227    -2.53399    -0.58580
C      1.26999    -1.57886    -1.10239
C     -0.27299    -0.50670     0.52033
H      2.28465    -0.61030    -2.71673
H      2.61184    -2.43946    -2.53101
C      2.10032    -1.54271    -2.17378
H     -0.40682    -1.48157     1.00946
H      0.70996     0.52166    -1.07686
