 13
no_name:-269.793305470526
H      1.34801    -0.48707    -1.03661
C     -1.48575    -0.44778     0.74344
C     -1.10346    -1.42868     1.66141
H      1.58381     0.75771     0.21057
H     -0.47677    -3.03687     3.16739
C     -0.15537     1.09292    -1.06214
C     -0.77012    -2.28239     2.46086
C      1.27060     0.59238    -0.83230
C     -1.17916     0.44481    -0.21461
H     -0.46992     0.95244    -2.11243
H      1.98181     1.11572    -1.48947
H     -0.23604     2.18177    -0.88992
C     -2.53643     0.33201     0.15682
