 16
no_name:-383.82040948299
C      0.95378    -1.02952     0.30126
H     -1.78918     4.08280     0.18760
H      4.05489    -1.85343    -0.56199
C     -2.37587     2.31737    -0.81307
H      3.14045    -3.46040    -0.27207
C      2.03746    -1.69341     0.00580
C     -2.60528     3.46727    -0.21387
C      3.12331    -2.36353    -0.28702
C     -1.09206    -0.03370    -1.05509
C     -2.02659     1.19553    -1.36514
H     -0.43319    -0.96226     2.06893
H      0.47659     0.61719     1.74787
C     -1.90710     0.04977    -2.15551
C     -0.26309    -0.41875    -0.08921
C      0.12040    -0.34352     1.34813
H     -3.62409     3.85973    -0.10068
