 14
no_name:-270.443462557396
H     -1.04228     2.19584     2.24126
C      0.41993    -0.84925    -1.75928
H      2.27055    -2.63889    -4.35096
C      1.10487    -1.51065    -2.71977
C     -0.79737     0.12868     1.55974
C     -0.90511     0.42414     0.08887
H     -0.31758     1.10972     3.45262
C     -0.34978     1.34882     2.37769
C     -0.21809    -0.23432    -0.87962
H     -0.10526    -0.71351     1.71702
H     -1.57634     1.23882    -0.21509
C      1.72800    -2.11351    -3.58797
H      0.65349     1.68394     2.07031
H     -1.78779    -0.20434     1.92622
