  8
no_name:-266.560975290687
C      0.23600     0.37156     0.19880
C     -0.46759    -0.77089    -0.19368
C      1.47213     0.99788    -0.00608
C     -1.07746    -1.77994    -0.48706
H     -1.61984    -2.66740    -0.75781
C      1.40219     2.21766     0.69111
C     -0.02306     1.72400     0.54955
C      0.40336     3.07210     0.99125
