 13
no_name:-382.00737539743
H      1.87193     2.59514    -1.77885
C     -0.20749    -0.75330     0.47823
C      1.66822     0.45138    -0.67967
C     -1.55224    -0.85184     0.93971
H     -0.84315     2.36271    -0.83036
C     -2.69746    -0.92673     1.33513
C      0.81251    -1.77038     0.65467
H     -3.71172    -0.99225     1.68189
C      1.99152    -1.59847     0.20925
C      0.30754     0.34011    -0.20743
C      2.54869    -0.57004    -0.45756
C      0.03788     1.72295    -0.79197
C      1.31394     1.83118    -1.23737
