 14
no_name:-382.712507637111
C      0.68870     0.66591     1.47005
C      2.21715     1.17245    -0.27482
C     -2.49965    -1.12046     0.17881
C      0.22998     0.00609    -1.46110
H      3.16010     1.58899    -0.64281
C     -1.31279    -0.47390     0.52297
H     -2.69617    -1.55660    -2.10727
C     -0.42691     0.09345     1.37052
C      1.89502     1.21556     1.11259
C     -2.17184    -1.16407    -1.23388
H      2.58534     1.66561     1.83297
C      1.28376     0.58644    -1.09365
H     -3.36007    -1.46841     0.75357
C     -0.94597    -0.52271    -1.05801
