 12
no_name:-306.547350795567
C      0.95165     0.85364    -1.38907
H      0.79387    -2.55026    -0.51043
H      2.13247     2.56290    -2.34871
H     -1.98756    -1.07807    -1.31387
C     -0.78176    -0.02617     2.99510
H     -0.94303     0.23339     4.02424
C      0.22973    -0.18946    -0.79645
C     -0.39035    -0.65933     0.48824
C     -0.60211    -0.32443     1.83119
C      1.57902     1.76143    -1.89725
C     -1.03608    -0.96363    -0.81252
C      0.22630    -1.63170    -0.44784
