  8
no_name:-191.815164466105
C      1.65589     1.77214     0.47525
H      0.63572    -1.72502     0.40308
C      0.48527     1.40143     0.02148
H     -1.09998    -1.85777    -0.31409
C     -0.31098     0.08920    -0.17944
C     -0.24678    -1.24214    -0.01714
C     -0.81157     1.31101    -0.51473
H     -1.60668     1.93736    -0.91162
