 16
no_name:-346.536199880563
C     -1.23432     0.91733    -0.62685
H      0.83817     1.74191     1.92751
H     -1.42746    -1.94248    -1.37155
C     -0.81045     1.83107     0.39518
C     -0.41024    -0.18479    -0.57139
H     -0.31706    -1.17803    -2.51308
C      0.58330     0.04337     0.54140
H      1.57310    -1.25328     1.99211
H     -2.06130     1.07566    -1.31843
H     -1.26829     2.80038     0.60493
C      0.30833     1.27166     1.09965
H      2.67826    -0.49162     0.84377
C      1.67952    -0.95457     0.93415
C     -0.44580    -1.44223    -1.44838
C      0.66667    -2.25665    -0.91275
C      1.46936    -2.07260    -0.01097
