 15
no_name:-345.926195785912
H      1.28871    -0.03372     2.42949
C     -3.96641    -1.09924    -2.34837
C     -2.78152    -0.76015    -1.76701
C     -5.02493    -1.40647    -2.87346
C      1.77029     0.53301     0.46117
C      2.05961     0.38642     1.77274
C     -1.71311    -0.45144    -1.24071
C     -0.53232    -0.11758    -0.65984
C      0.53258     0.17870    -0.12561
H      3.21547     1.49822     3.20603
H      2.52992     0.95207    -0.21259
H     -5.95960    -1.67380    -3.32946
C      3.36263     0.75635     2.40090
H      4.06888     1.17509     1.66802
H      3.83456    -0.12273     2.87524
