 18
no_name:-385.252601067764
H     -0.74104    -0.49666    -2.57697
H      2.83583    -1.82103    -0.54785
H      1.42997    -1.73504    -2.58801
C      1.09170    -1.22907    -1.68050
C     -0.12175    -0.54362    -1.67778
H      2.12152    -0.68134     1.54923
C      1.88996    -1.27378    -0.52443
C      1.49031    -0.63627     0.65797
C     -0.52709     0.09940    -0.49479
C      0.27124     0.03478     0.68082
C     -1.65172     0.95834    -0.22662
C     -1.66317     1.35877     1.11196
H     -3.45829     2.36581     1.05124
H      0.21793     1.55263     2.24863
H     -2.42363     1.22141    -0.95348
H     -0.74088     0.11035     2.60595
C     -0.42218     0.77846     1.78867
C     -2.82041     1.79936     1.76768
