 11
no_name:-343.28441124961
C      1.32794     0.50743     1.13320
C     -0.78479    -0.91857     0.67653
C     -1.71523    -1.07679    -0.34192
H     -2.57563    -1.74380    -0.37881
H      2.06318     0.63679     1.92896
C     -1.27543    -0.17212    -1.30247
C      0.59715     1.10955    -0.93144
C     -0.45898     0.70453    -1.69335
C      1.74416     0.54819    -0.34016
C      0.23227    -0.40464     1.19912
C      0.82240     1.70521     0.32324
