 13
no_name:-344.640692850989
C      0.61458     0.26280     1.47711
C      2.16857     1.14642    -0.19631
C     -1.98737    -1.10954    -0.77332
C      0.24170    -0.04937    -1.18419
H      3.10612     1.66959    -0.40158
C     -0.72866    -0.58371    -0.39234
H     -4.03693    -1.98119    -1.30577
C     -0.19373    -0.69457     1.01055
C      1.49705     1.21206     1.12403
C     -3.07721    -1.57313    -1.04830
H      1.63451     2.13532     1.70259
C      1.36150     0.54267    -1.09592
H     -0.36562    -1.64665     1.52919
