 11
no_name:-343.276514602987
H      1.48048     1.74446     2.52710
H     -1.85926    -2.89904    -2.65664
C      0.53291     0.98479    -0.86513
C      1.03952     1.53141     0.46373
C      1.00298     1.07018     1.79963
C     -0.10400    -1.21285     2.49749
C     -0.73355    -1.06738    -1.84076
C     -0.07366     0.00437    -1.35823
C     -1.33276    -2.04152    -2.27793
C      0.44005    -0.09435     2.17720
C      1.26683     2.26614    -0.60725
