  9
no_name:-192.449613625638
H      1.48180    -0.92569    -1.50525
H     -2.11887    -0.92547     1.95169
C      1.20833     0.06711    -1.11263
C     -0.76033     0.09728     0.73029
C     -0.03498     0.23847    -0.35162
C     -1.50041    -0.03384     1.79873
H      2.08238     0.70432    -0.90178
C     -0.02498     0.73670    -1.69594
H     -1.52472     0.74644     2.56783
