 11
no_name:-193.710756915429
C     -1.40132     1.35952    -0.22963
H     -1.44288     2.45181    -0.22132
H      2.68282    -1.56149     1.32584
H     -2.34854     0.82661    -0.36547
H     -1.06123    -1.27324    -0.43026
C     -0.23721     0.69615    -0.06824
C      0.99212    -1.48057     0.14447
C      2.09774    -0.83124     0.72330
H      0.70474     1.22206     0.11893
C     -0.14388    -0.73779    -0.15096
H      0.92330    -2.57150    -0.01141
