 17
no_name:-347.155107834987
C      1.45802    -0.57393    -1.97110
C      2.34798    -0.62267    -2.79188
C     -1.75366     0.63785     1.24569
H      3.13213    -0.66497    -3.52400
H     -0.45851     1.53697    -0.89270
H      0.12707     1.33988     1.83383
H     -4.03337     0.66365     1.40519
C      0.25148    -0.79702     1.38369
C      0.62413    -1.40207     0.25373
H      0.25619    -1.24425     2.37984
C      0.39942    -0.51522    -0.96339
C      0.21635     0.88741    -0.31958
H      1.00380    -2.42221     0.16790
C     -0.29076     0.60426     1.12383
C     -2.96271     0.64924     1.32694
H      1.20016     1.37534    -0.25924
H     -0.54719    -0.82767    -1.44783
