  9
no_name:-229.805438163894
C     -1.29577     0.11520    -0.07729
C      0.96670     0.25286     0.23277
C      0.00951    -0.79716    -0.75993
C     -0.14805     0.92105    -0.36912
H      2.00878     0.49532     0.01530
H     -0.08953     1.69413    -1.13918
C      0.47224    -0.88539     0.95101
C     -0.88027    -0.96719     0.76621
H     -2.26277     0.23576    -0.56954
