 17
no_name:-272.381514418012
H      2.10254     1.81664    -0.63243
H      1.94459    -0.47101     0.53228
C     -1.17573     1.23471    -0.98236
H     -2.22327    -0.59601    -0.32703
C     -0.20685    -0.60053     0.33113
H     -1.25789    -2.36194     1.02889
H     -2.10113     1.71765    -1.31002
C     -0.25977    -1.90086     1.07413
C      1.28724     1.10021    -0.82250
C      1.07933     0.19952     0.40133
C     -1.26513    -0.06689    -0.31600
C      0.01720     1.81383    -1.21455
H      0.08359     2.76881    -1.74439
H      0.00636    -1.75677     2.13794
H      0.47337    -2.62202     0.66946
H      1.03722     0.82113     1.31994
H      1.62085     0.48348    -1.68321
