 19
no_name:-385.738216033219
C     -2.35542     1.35077     0.90546
C     -2.07321     0.70772    -0.23738
C      0.05991    -0.51614    -1.16427
C     -1.09450     1.27556     1.73359
H     -1.00065     1.71105     2.73106
H      1.07261     1.73929     0.71807
H      3.11694    -0.82398     0.50816
C      1.36607    -0.93812    -1.05859
C     -0.64065     0.23683    -0.11586
H      3.02902    -1.19064    -2.57204
H      2.45985    -2.76763    -1.81647
C      2.50081    -1.66873    -1.72993
H      0.12643    -0.82587     1.92630
H     -0.49799    -0.74963    -2.07489
H     -2.71235     0.53574    -1.10334
H     -3.28387     1.83533     1.20563
C     -0.34258    -0.00454     1.38269
C      0.11230     1.22847     0.80158
C      2.52602    -1.03097    -0.37954
