 17
no_name:-309.64683625857
H      1.91654    -0.17808    -0.38156
C     -1.26476    -0.50041    -0.06091
H      1.00582     1.31400     2.17949
C      2.05714     0.15326     0.65922
H      0.76362     1.89639     0.52755
H     -0.25168    -2.51210    -0.77069
H     -1.55970    -1.39811    -3.06891
C     -0.83385    -1.60360    -0.94600
H      2.19098    -0.74322     1.28411
H     -3.07458     0.22413    -1.18763
C     -1.50353    -0.37483     1.40652
H      2.98164     0.74934     0.70715
C     -0.41646     0.23639     1.08329
H     -1.57303     1.12455    -1.59490
C     -1.97756     0.14632    -1.28075
C      0.85484     0.97971     1.13767
C     -1.45124    -1.07110    -2.03230
