 10
no_name:-193.091800821824
C      0.88322    -0.45794    -0.80700
H      2.58270    -1.06591     0.31465
C     -0.44071     0.07933    -0.86509
C      1.57241    -0.65091     0.33093
H      1.14141    -0.39829     1.30392
H     -1.39468     1.58174     0.64370
C     -1.56232     0.61175     0.14911
C     -1.56994     0.50474    -1.32984
H     -2.08985    -0.12887     0.77110
H      1.32876    -0.71615    -1.77535
