 13
no_name:-307.254752969146
H     -0.63052     3.38885     0.45428
H     -2.88376    -1.10735     0.11429
H      1.67673     1.96929     0.21654
C     -1.09833     0.04500     0.14922
H     -1.27209    -2.05723    -0.04856
C      0.39369     0.19666     0.09928
C      1.28985    -0.88849    -0.04495
C     -0.57489     2.30555     0.34654
C     -1.79219    -1.10255     0.06730
C      2.02384    -1.85084    -0.17134
C      0.67683     1.53291     0.21721
H      2.68805    -2.68690    -0.28261
C     -1.58349     1.41292     0.30332
