 11
no_name:-193.722151964331
H     -1.69608     0.82035     1.36452
H     -1.62113     0.69124    -0.41423
C     -1.39716     0.16893     0.52740
H      1.58069    -1.33609    -0.63009
C      0.08342    -0.16395     0.62022
H      0.31175    -0.75488     1.52287
H      1.57614     1.30875    -1.88827
H     -2.00374    -0.74998     0.57568
C      1.13248     0.82248    -1.02117
C      0.85800    -0.50368    -0.59125
C      1.04244     1.03531     0.32898
