 18
no_name:-347.769437316519
H      3.19956     0.25123     2.20055
H     -2.26408    -0.40139    -1.52926
H      1.23274     1.98716     0.85705
H      0.40074     1.18815     2.20762
C     -0.40060    -0.44309    -0.41100
C     -0.54963     0.86927     0.26728
H     -1.58275     2.67470     0.69021
H     -2.42854     1.52314    -0.50549
C      1.54111    -0.17440     0.93743
H     -2.02001    -2.55324    -2.64836
C     -1.37325    -1.00782    -1.34043
H     -0.37614    -2.83003    -1.80322
H      3.25851    -1.37760     1.28122
C     -1.57306     1.72863     0.14169
C      0.68055     1.07787     1.14682
C      2.73042    -0.44781     1.50368
C     -1.25009    -2.19109    -1.96270
C      0.77990    -0.96435     0.00820
