 17
no_name:-309.795451804106
H     -0.23433     1.48939    -0.83613
H      2.26158    -0.10555    -0.12665
H      1.71437    -1.43321    -2.47148
C     -1.23393     0.39685     1.66485
C     -0.68796    -0.52814    -0.34707
H      0.89961     0.68264     1.87384
H     -1.74678     0.57766     2.61233
H     -0.66335    -2.28253    -1.73377
C      0.06078     1.08467     1.26909
C     -1.59987    -0.55388     0.73673
H     -2.42753    -1.25669     0.85548
C      1.07710    -0.94598    -1.72988
H      2.02331     1.02710    -1.46726
H      0.04909     2.17398     1.43685
C     -0.17528    -1.38202    -1.35434
C      0.20948     0.68509    -0.21598
C      1.52657     0.23350    -0.88551
