 17
no_name:-384.539182327292
H     -0.22905    -1.44685    -0.18467
C      3.52562    -0.76024     0.23867
H     -3.22461    -0.77421     0.25000
H     -3.63111     3.05331     0.08790
H      4.94548    -1.47172     1.88538
C     -0.86462     0.60626    -0.21320
C     -1.11147    -0.80603    -0.08571
C      4.27994    -1.14104     1.11033
C      1.56410     0.38579    -0.63316
H      0.56841     2.20809    -0.52798
C      2.65194    -0.33820    -0.81104
H     -2.41854    -2.46309     0.22995
C     -1.91817     1.53859    -0.09486
C      0.46719     1.11721    -0.46690
C     -2.31971    -1.37875     0.14388
C     -2.82894     2.34505    -0.00056
H      2.91365    -0.66153    -1.83155
