 13
no_name:-269.846183155657
H      0.98505    -0.02912    -1.79208
C      0.10609    -1.58771     0.10216
H      0.01176     2.35321    -1.99333
C      0.13061    -2.80059     0.13181
H      0.15395    -3.87378     0.15301
C      0.56039     0.55199    -0.96704
H     -1.45526     1.47026     3.07420
C      0.06686    -0.15145     0.08688
C     -0.51783     0.48838     1.23317
C     -1.01502     1.00884     2.21038
H      0.12825     2.52840    -0.21603
H      1.60199     2.40918    -1.22528
C      0.57017     2.03719    -1.09400
