 11
no_name:-343.33283834604
H      1.81054     0.37164    -2.24134
C      0.78312    -0.78729     0.81671
C      1.13626    -0.60711    -0.35132
H      0.23855    -0.42908     2.95210
C      0.97292     0.12397    -1.58271
C     -0.26509     0.63840    -1.68633
C     -1.21746     0.15196     1.45879
C     -1.90408     0.30703     0.32859
C     -0.08322    -0.41443     1.90663
C     -1.46542     0.53118    -1.11983
C     -2.78290     0.41091    -0.72953
