 11
no_name:-343.383666700267
H     -1.48706     0.84439     2.84896
C     -0.97670     0.48690     1.95369
C     -0.40897     1.42921    -0.40423
C     -0.43352    -0.75039     1.75017
C      0.62300    -1.70281    -0.08524
C      0.13379     1.25458    -1.67370
C      0.91734    -1.18628    -1.24490
C      0.61976    -0.02255    -1.68762
C      0.18554    -1.69155     1.14216
H      0.14729     1.97478    -2.49282
C     -0.76656     1.18192     0.76659
