 12
no_name:-231.749897573619
C     -0.67127     0.56879     0.28923
H      1.21816     1.09766    -1.01595
C      0.38264    -0.44752     0.53295
H     -1.37140    -0.72590    -1.42420
H      0.31178    -2.89698     0.95403
H     -0.91199     1.47992     0.83875
C     -0.95623     0.25569    -1.14986
C      1.25502    -0.90142     1.62857
H     -1.33639     1.08545    -1.75777
C      0.47288     0.36351    -0.70669
H      1.97554    -0.63845     2.40226
C      0.56310    -1.84059     1.02608
