 11
no_name:-343.247827034162
H      0.77020     2.40029     2.46782
H     -2.09784    -2.44398    -2.98704
C      0.72800     0.58659    -0.39083
C      0.86491     0.59422     1.02280
C      0.51601     1.40645     2.09290
C      1.08801    -0.39476     2.08475
C     -0.67923    -0.90321    -2.05891
C      0.18926     0.03086    -1.49726
C     -1.43274    -1.72066    -2.55039
C     -0.10693     0.21737     2.61803
C      1.11065     1.10721    -1.66073
