 10
no_name:-342.625127578969
C     -2.03778    -0.06351    -0.96162
C     -0.11625    -1.41242    -0.11415
C      0.96707     0.99350     0.25883
C      0.84609    -0.48219     0.25896
C     -1.32508    -1.06785    -0.63491
H      3.03426     1.25729     1.11291
C     -1.28873     1.06986    -0.68780
C     -0.25514     1.62107    -0.27231
C      1.13340    -1.84144     0.42839
C      2.07803     1.58172     0.70253
