 11
no_name:-343.298435863111
H      1.25116    -0.68512    -1.78090
C     -0.44912     0.39757    -1.04471
C     -2.03470     0.32057     0.68386
C      1.42819    -0.23735     0.29278
C      0.99619     0.13719    -1.08839
C     -0.41522    -0.26963     2.03308
C      0.78832    -0.40052     1.61302
C     -1.59228     0.51600    -0.58181
H      1.56944     1.02316    -1.41599
C     -1.72326     0.01579     1.87309
C      2.23275    -0.59389     1.28790
