 11
no_name:-156.242716976629
H      1.36359     1.14809    -0.35211
C     -0.44260     0.36377     0.51566
H     -0.77760    -0.20514     1.52409
C      1.08175     0.50604     0.49795
H      1.44766     0.97617     1.42136
H     -0.55343    -1.34513    -0.85070
H     -2.11695    -0.49876    -0.58910
C     -1.03148    -0.36455    -0.69553
H      1.57769    -0.46827     0.36042
H     -0.84515     0.24483    -1.59459
C     -1.24587     1.18824     1.33501
