 12
no_name:-231.805927325619
C      0.65801     0.89897     1.77807
H     -1.80846    -0.25004    -1.83480
C      1.65697     1.26251     2.36672
C      0.23395    -0.89009    -1.07458
H      2.54347     1.57803     2.88347
H      0.76374    -0.27491    -1.81186
H     -1.48703     0.78738     1.55260
C     -0.53427    -0.21993    -0.02688
H      0.74003    -1.83253    -0.83290
C     -1.30477    -0.87371    -1.08609
H     -1.83241    -1.80751    -0.85619
C     -0.53063     0.49139     1.10397
