 17
no_name:-384.624221888955
C     -0.08496     2.09946    -0.23872
C      0.57678    -0.05693     0.57900
C     -0.81535     1.49102    -1.26887
H     -1.42792    -0.37420    -2.20215
C     -0.16355    -0.67377    -0.46556
C      0.03067    -2.12876    -0.27682
H     -1.35702     2.11465    -1.98464
H     -0.42425    -2.89884    -0.90176
C      0.21560    -2.38722     1.24401
H     -0.36055    -2.94650     1.98248
C      1.17885    -1.17211     1.34357
H      1.79692    -1.04786     2.23412
C      0.62314     1.32917     0.69636
H      1.19455     1.80981     1.49452
C     -0.86002     0.09412    -1.39423
H     -0.06610     3.18975    -0.16463
C      1.36721    -2.38359     0.42582
