 17
no_name:-272.376148737476
H     -0.45915     2.76647     1.18114
C      0.48269    -1.37275    -0.30930
H      0.99842    -2.02897    -2.30357
H     -0.41521     1.21524    -1.33270
H      0.95599     1.51911    -0.26418
C      1.38388    -1.36735    -1.50625
C     -1.50380     0.92033     1.65062
C     -1.02401    -0.30829     1.38205
C     -0.14309    -0.30073     0.21253
H     -1.24848    -1.21505     1.94884
H     -2.18073     1.16486     2.47292
H      1.50337    -0.36141    -1.93541
C     -1.00006     1.95005     0.66955
C     -0.07921     1.14139    -0.28586
H      0.32451    -2.34201     0.17944
H      2.39083    -1.74660    -1.25343
H     -1.83551     2.43505     0.13269
