 14
no_name:-307.870260626222
C      1.21270    -0.52369    -0.59290
H      3.10105     0.37737     0.06390
H     -0.69923     0.05531     2.22335
C     -1.36720    -0.86545    -0.64634
H     -0.92536     2.10957     0.05435
C     -0.19950    -0.19664    -0.13620
C      1.10095     1.12012     0.97523
C     -0.13752     0.29875     1.32080
H     -3.19720    -1.95191    -1.48101
C     -2.33804    -1.44149    -1.08858
C      2.01532     0.29590     0.10004
C     -0.24615     1.28614     0.27804
H      1.46077    -1.28022    -1.33541
H      1.45729     1.88798     1.66530
