 18
no_name:-385.229731284471
H     -1.82935    -1.16038     1.75877
C      0.85563    -2.17330     1.93383
H     -1.67500     4.06618    -2.35903
C      1.39819    -3.01381     2.62729
H      1.86660    -3.75577     3.24557
C      0.24177     1.43735    -1.61359
H     -2.17870     0.75282    -0.11363
C      1.00424    -0.40706     0.05321
C      0.25828    -1.19110     1.11004
C     -0.04881     0.49538    -0.54036
H      1.27603     1.45772    -1.98208
H      1.45210    -1.07416    -0.70607
C     -1.23302     0.25180     0.09856
C     -1.04667    -0.77522     1.10399
C     -0.62891     2.25223    -2.18366
C     -1.49869     3.05251    -2.74158
H      1.84081     0.16795     0.49086
H     -2.08494     2.74354    -3.61674
