 18
no_name:-385.169708102371
C     -0.43289     1.67336     0.35683
C     -0.46922    -1.43757    -2.03126
C     -0.26570     0.28465    -0.19106
H     -0.34330     2.52078    -0.32808
H     -0.64801     3.00081     3.36815
C      0.44039    -0.47079     0.84779
H      0.68575    -3.17791    -2.42031
H     -1.29384     0.57102    -1.99140
H      0.60868    -1.54687     0.79644
C      0.27562     1.68574     1.64863
C      0.75704     0.32280     1.90782
C      0.62207    -2.21407    -1.90842
H      1.21519    -0.00598     2.84141
H      1.49327    -1.89855    -1.32868
C     -0.68692    -0.13412    -1.41099
H     -1.27250    -1.77758    -2.69743
C     -0.62150     2.52826     2.38883
C     -1.51148     2.00847     1.49827
