 11
no_name:-343.249027930333
C      0.06159     0.43270    -1.11913
C     -0.48556    -0.95169    -0.84566
C      1.30821     0.91164    -0.63423
C      1.30564     0.90711     1.85302
C     -1.21479     0.10797    -0.04846
C     -1.05585     0.31104     1.34869
H      0.13877    -1.69491    -0.32660
C      1.68859     0.69795     0.57224
H     -1.07507    -1.36263    -1.67288
C      0.10033     0.29441     1.90463
C     -1.10683     1.27311    -0.91172
