 18
no_name:-310.40220036954
C     -0.12193    -0.61239    -0.33299
H      2.35314    -2.44423    -1.48090
H     -0.18020    -2.15572    -1.74461
C      0.05473     1.88130     0.30825
C     -1.79927     0.28348     1.01241
H     -2.77697     0.47871     1.45797
C     -1.54816    -0.60617     0.02830
H      1.54759     0.30320     0.87213
H     -2.29117    -1.23167    -0.47136
H     -0.37452     1.28771     2.44126
C     -0.55924     1.02381     1.39561
C      0.46238    -1.43017    -1.23075
H      2.50205    -0.72845    -1.00944
H      0.74359     2.67314     0.61718
C      0.53186     0.45551     0.49973
H     -0.55657     2.11563    -0.56846
C      1.91161    -1.43927    -1.60614
H      2.04965    -1.17324    -2.67028
