  8
no_name:-191.831565428929
C      0.68440     0.71965    -1.18936
C     -0.20299     0.85991    -0.08792
C     -0.74870    -1.06973     1.59175
C     -0.48968    -0.16968     0.80188
H      1.20130    -0.25517    -1.38405
H     -0.97467    -1.86218     2.28060
C      1.18583     1.41265    -2.19790
H     -0.68169     1.83285     0.05833
