 10
no_name:-305.329364189901
C      2.35185    -0.34055     0.28862
C     -0.06421    -0.35010     0.52792
C     -3.60437     0.65720    -0.63684
C     -4.78954     0.99164    -1.02526
C      3.39490    -0.03515    -0.25509
C      1.14947    -0.70766     0.94125
H      4.31456     0.23742    -0.73919
C     -2.41447     0.31759    -0.24298
C     -1.23870    -0.01784     0.14647
H      1.21274    -1.32704     1.84877
