 10
no_name:-118.304534982691
H      0.67348     0.51746    -1.69630
C     -0.89975     0.54726     0.54503
H      1.44296    -1.17718    -1.48052
H     -1.30582     0.44227     1.56362
C      0.18343    -0.49591     0.26093
H     -0.22490    -1.51494     0.41301
C      0.78261    -0.39315    -1.09954
H      0.98270    -0.40910     1.03058
H     -0.49839     1.57002     0.44845
H     -1.73771     0.45165    -0.16485
