 13
no_name:-307.256447731912
H     -1.94198     2.40559     0.26449
H     -2.64936    -0.29267     0.14687
H      2.42401     1.84521     0.02571
C     -0.67812     0.50963     0.09829
H     -1.24799    -1.53195     0.01110
C      0.80535     0.35248     0.01890
C      1.47214    -0.89234    -0.08295
C     -0.95039     1.96134     0.19247
C     -1.57620    -0.49131     0.08485
C      2.02401    -1.97293    -0.16978
C      1.36149     1.60956     0.06302
H      2.51792    -2.92323    -0.24562
C      0.26265     2.55008     0.16776
