 14
no_name:-382.550871573979
H      2.03955     1.28699     1.89647
C      0.21579     1.28222    -0.83838
C      1.20528    -0.63324     1.01092
C     -0.43083    -1.79593    -0.55607
C     -0.09095    -0.96781     0.62814
H     -0.41098     2.43087     1.21343
C     -0.84411    -0.97582    -1.57017
H     -0.25340    -2.86931    -0.64349
H     -1.07174    -1.25981    -2.59676
C     -0.87006     0.40001    -1.02050
C      1.33547     0.85658     1.18016
C      0.00405     1.47683     0.87808
C     -0.78441     0.30627     0.39972
C      1.36601     1.60105    -0.24600
