 11
no_name:-231.124260661474
C     -0.53979     1.23605    -0.48117
C     -0.01615    -1.33542    -0.63388
C     -0.22494    -0.10262    -0.26530
H     -1.06110     3.45179    -0.74128
H      2.45271    -0.71556     0.65748
H      1.86675    -1.19400     2.38004
C     -0.81636     2.41439    -0.61038
H      0.04362    -2.06699    -1.43791
C      0.27692    -1.09832     0.82902
H     -0.47285    -1.43101     1.56302
C      1.63999    -1.00774     1.32793
