 17
no_name:-347.269981224381
C     -1.34066    -1.26304     0.92560
H      1.52317     2.32999    -1.84837
H     -0.09220     2.62759    -2.74300
C     -0.28787    -1.69199     1.75597
H     -0.47822    -2.46443     2.50601
C      0.27182     0.25747    -0.10904
H      1.78774    -1.52440     2.31962
H      2.33081     0.24874     0.63700
H     -2.34128    -1.69203     1.02307
C      1.00697    -1.15498     1.64938
C      1.32020    -0.16063     0.70857
H     -2.34235     1.32871    -0.83487
C     -0.12789     1.16390    -1.21067
C     -1.02293    -0.28155    -0.00116
H     -1.91272     0.06152    -2.03053
C      0.46413     2.08680    -1.97240
C     -1.57137     0.59617    -1.12801
