 10
no_name:-305.295951785014
C      1.89768     0.26732     0.56687
C     -1.18456     0.43232    -1.18750
C     -0.67302    -0.38186    -0.19216
C      1.49301     0.64462    -0.63703
H     -2.07026     0.83013    -1.68132
C      0.14583     0.59555    -0.89430
C     -0.16896    -1.19613     0.81004
C      1.08000    -0.72440     1.29254
H     -0.64140    -2.10165     1.19005
C      2.13296    -0.12685     1.90626
