 13
no_name:-344.545098103709
H      0.25411     3.06662     2.33353
H      2.11789    -4.84942    -1.95670
C      1.99120    -2.94353    -0.65874
C      1.80373    -3.90806    -1.53130
C      0.41096    -0.69150    -0.35724
C     -0.36047     1.57413     0.68480
C      0.72795    -2.90712    -1.71204
C     -0.27676     2.58642     1.51586
C      0.06620     0.37433     0.15022
H     -1.41775     3.33480    -0.28361
C     -1.43687     2.64978     0.57959
H     -2.45316     2.41722     0.93715
C      0.80865    -1.88691    -0.88597
