 13
no_name:-307.248410215003
C     -0.68023     1.55973    -0.70391
C     -0.29714     0.28759    -0.23057
C     -0.43697     2.88481    -0.85326
H     -1.07973    -1.07280    -1.83900
C     -0.53949    -0.96234    -0.90073
C      0.02759    -1.95142    -0.12902
H      0.25718     3.71392    -0.70897
H      0.01330    -3.02170    -0.33920
C      0.64800    -1.33308     1.06030
H      1.16983    -1.87875     1.84676
C      0.45326     0.01558     0.99698
H      0.77937     0.77285     1.70821
C     -1.62861     2.40232    -1.38792
