 19
no_name:-385.821725296334
C      0.09449     0.21739    -0.06627
H      1.02315     2.04968    -0.69367
H      0.92197    -3.20506    -2.59792
C      1.09538     0.96781    -0.87398
H      2.17838    -3.40848    -1.23262
H     -2.05166    -2.07552     0.36864
C     -0.94257     2.16144     1.16590
C      0.58892    -2.08031    -0.84828
H     -0.86295    -2.26199     1.66338
C     -1.01564     3.34999     1.40404
C     -0.09282    -1.21082    -0.09894
C     -1.21402    -1.56608     0.87950
C      1.25389    -2.93019    -1.58649
H     -1.08931     4.39934     1.61926
H      0.95512     0.78139    -1.95328
C     -0.83988     0.76866     0.87098
H     -2.39806    -0.07949     2.17945
H      2.12367     0.64265    -0.63485
C     -1.61436    -0.23237     1.43840
