 14
no_name:-233.091707425807
C     -0.25555    -1.37451     0.09603
H     -1.64328    -1.11039    -1.54458
C      0.76647    -0.51869     0.81707
C     -0.87879    -0.69810    -0.88133
H     -0.76019     2.63172     0.21158
H     -1.48502     1.13792     1.01272
H     -0.33517     1.24347    -1.89111
H     -0.45641    -2.41386     0.36826
H      1.79099    -0.90475     0.66180
C      0.58980     0.86377     0.18629
C     -0.43804     0.72883    -0.93082
H      1.47211     1.49565     0.05487
H      0.60323    -0.50761     1.91040
C     -0.74735     1.54217     0.31128
