 13
no_name:-382.039383143531
C     -0.22482     0.06436     0.19451
C     -1.58653    -1.88754     0.61175
C      2.97772     1.68154    -1.32928
H      4.87185     2.64405    -2.22798
C     -1.80563    -3.07785     0.51296
C      1.88163     1.12071    -0.80691
C      3.99249     2.18979    -1.81074
H     -2.00016    -4.13072     0.42800
C      0.83626     0.60161    -0.30961
C     -1.33663    -0.48156     0.72407
C     -2.29535     0.33249     1.40975
H     -3.83629     1.62216     2.50472
C     -3.11358     1.01590     1.99115
