 10
no_name:-305.232339760354
H      0.72087    -0.67337    -1.70134
C     -0.72421     0.42041    -0.46163
C     -1.42529     0.28741     0.73327
C      1.20315    -0.58439     0.41862
C      0.73622     0.01852    -0.84350
C     -0.64986    -0.36251     1.85287
C      0.65813    -0.73309     1.51316
C     -1.97380     0.88765    -0.60346
H      1.29975     0.91614    -1.14742
C     -1.87990    -0.00105     2.18418
