 11
no_name:-231.11209946827
H     -0.58488     3.08784    -0.30704
C      0.04761    -1.47097     0.71248
H      0.24428     0.73778    -2.32150
C      0.05820    -2.63018     0.36487
H      0.06462    -3.66085     0.06358
C      0.18779     1.12953    -1.30871
H     -0.86679     0.15960     1.70972
C      0.11242     0.89487    -0.01398
C      0.03951    -0.06440     1.11572
C      0.17456     2.29412    -0.41377
H      0.88484     0.14564     1.79918
