 12
no_name:-194.416116281949
H     -0.61842     1.99845    -0.05598
C     -0.61187    -0.66206    -0.54647
H      0.26741    -2.61095    -0.34032
C      0.23864     1.48817     0.40244
H     -1.30796    -2.53495    -1.34196
C     -0.54894    -2.01195    -0.75593
H      1.00580     3.31478     1.23870
H      1.17534    -0.44349     0.64752
C      0.32765     0.08967     0.19967
H     -1.45086    -0.10580    -0.98435
H      2.00191     1.77478     1.59514
C      1.13121     2.23636     1.11894
