 15
no_name:-345.863181597843
C      0.21030    -0.76479    -0.82409
H     -1.96474    -0.28745    -0.94167
H      2.49885     3.23870    -1.67628
H     -0.76852     0.27694     3.42233
C     -0.61179     0.04800     2.36656
H     -0.48286    -2.76042     0.26473
C      1.25695     1.59126    -0.68192
C      1.91809     2.46107    -1.21886
C      0.49764     0.54588    -0.09819
H      0.96666    -1.19169    -1.49037
C     -0.09518     0.48961     1.12624
C     -0.58077    -1.67403     0.20428
H     -1.47579    -1.83917    -1.80433
C     -0.67593    -0.84246     1.38539
C     -1.22505    -1.08485    -1.05378
