 11
no_name:-305.939630820505
H      0.56462    -0.27362     2.18327
H      1.97309    -0.93411     0.21293
C      0.23938    -0.07927     1.16085
C     -1.00438     0.56013     0.90394
C      1.01179    -0.43998     0.04926
C     -0.65925     0.45626    -1.43373
C      0.59604    -0.18979    -1.26481
C     -1.56211     0.88427    -0.38953
C     -2.20914     1.16512     0.97217
H      1.19774    -0.47176    -2.12929
C     -1.77941     1.04909    -1.89847
