 18
no_name:-385.218400341352
H      0.23113     1.82819     2.87163
C     -0.13735     0.03148    -2.71870
H      0.93254     1.85627    -5.71070
H      1.81960    -0.36014     2.93605
C     -0.34480    -0.71465     0.74160
C      0.72314    -0.41881     2.79255
C      0.26348     0.71394    -3.83989
C      0.14810     0.88981     2.32173
C     -0.92883    -1.29157    -0.52583
C     -0.50036    -0.58396    -1.73079
C      0.61903     1.32136    -4.83427
C      0.34814    -1.37764     1.69694
H     -0.96855     1.46069     0.53126
C     -0.46520     0.70123     1.13258
H      0.30936    -0.72385     3.77344
H     -2.03427    -1.25470    -0.47389
H     -0.65985    -2.35848    -0.60702
H      0.60579    -2.43793     1.69009
