 14
no_name:-270.425051048854
C      0.00055    -1.50096    -0.12851
H     -2.22062    -1.23466     0.71636
H      2.06425    -1.25485     0.69000
H      2.03847     1.20824     0.55981
H      0.04237    -2.59012    -0.02905
C     -1.15184     0.40574    -0.68008
H     -2.06711     0.88116    -1.05372
C      1.17669     0.61983     0.22911
C      1.19025    -0.72078     0.30624
C     -1.38504    -0.87708     0.11315
C     -0.02327     1.35943    -0.30805
H      0.26870     1.95161    -1.19660
H     -0.37691     2.09853     0.43625
C     -0.86968    -0.96046    -1.22676
