 19
no_name:-385.874661839083
C     -2.07011     1.40460     0.92202
C     -2.13193     0.50132    -0.19690
C     -0.08864    -0.73471    -1.29833
C     -0.81896     1.39015     1.50479
H     -0.50813     1.94254     2.39161
H      2.23939     0.76043     0.59982
H      0.54499    -1.75506     1.37952
C      1.31517    -0.61159    -0.95170
C     -0.87088    -0.09962    -0.33575
H      2.23865    -1.50428    -2.65667
H      3.40251    -0.82128    -1.36231
C      2.37777    -1.00258    -1.69557
H      1.12272    -0.43802     2.54364
H     -0.44170    -1.18088    -2.22912
H     -2.98068     0.39371    -0.87287
H     -2.90412     2.02772     1.25156
C     -0.02695     0.35774     0.81149
C      1.41581     0.07037     0.40040
C      0.80723    -0.70351     1.53030
