 17
no_name:-347.168848816203
H     -0.52703    -1.06519     4.46509
C     -0.37305    -1.08405     2.31602
C     -0.44555     1.78959    -4.43736
H     -1.09532    -0.22598    -0.14768
C      0.41204    -0.46960     1.40666
C      0.74637     0.57888    -0.81161
H     -1.11331     2.48772    -6.51747
C      0.06772    -1.54536     3.66722
H      1.13051    -1.32434     3.84975
C     -0.80242     2.15775    -5.54434
C      0.31089     1.00076    -2.08559
C     -0.04585    -0.03826     0.10544
H      1.46480    -0.27817     1.65095
H     -1.42347    -1.26651     2.05304
H     -0.08383    -2.63355     3.78454
C     -0.04571     1.37248    -3.19812
H      1.79840     0.76946    -0.56197
