 11
no_name:-156.332621544985
H      1.78579     1.00917    -0.28370
H     -0.65218    -2.35822     0.73750
C      0.09700    -0.48337    -0.20650
H     -1.34103     1.24342    -0.18111
C     -0.41799     0.88873    -0.64936
C      0.81788     0.80977     0.18611
H     -0.32229     1.14387    -1.70910
H      0.75591     1.10856     1.23680
H      0.59090    -1.06565    -0.99140
C     -0.62542    -1.26845     0.78788
H     -1.15225    -0.77250     1.60798
