 13
no_name:-382.016134380794
C      1.23315     0.62756    -0.79562
H      1.26834     1.65631    -1.20597
C     -2.62552    -1.72799    -0.04072
C      1.28261     0.75297     0.75229
C     -0.62387    -0.35288     2.11258
C     -1.73638    -1.05492     1.99187
C      0.37035     0.23636     1.58123
H      2.14516     1.31219     1.13040
C      0.10842    -0.10498    -1.35659
C     -2.07283    -1.44982    -1.13053
C     -0.93189    -0.75520    -1.43594
H      2.19025     0.16873    -1.11444
C     -2.62613    -1.65247     1.30708
