 10
no_name:-305.197892477674
C     -0.33264    -0.48517     2.69807
H      1.20680     1.10083    -2.69308
C     -0.01845    -0.26051     1.54694
C      0.32813     0.02733     0.22908
H     -0.61143    -0.69374     3.71517
C      0.59003     0.49174    -2.02915
C     -0.72788    -0.12424    -2.25124
C      1.09033    -0.27198    -0.80746
C     -0.31254     0.75185    -0.95069
C     -1.82661    -0.73777    -2.50913
