 15
no_name:-308.578144869554
H      1.21101    -2.32429    -1.39602
C     -0.86989     0.40325    -1.10426
H     -1.60910     0.95833    -1.68786
C      1.10233    -1.11637     0.38784
H     -0.45666     2.76842     1.14752
C      0.73932    -1.45962    -0.92095
H     -1.75584     1.71082     1.78338
C     -0.21614    -0.72807    -1.65236
C     -0.51406     0.74169     0.18205
C     -0.74199     1.71947     1.34465
H     -0.45756    -1.04495    -2.67027
C      0.45244     0.00763     0.93266
H      1.84581    -1.69697     0.93914
C      0.31171     0.86001     2.06674
H      0.75932     0.90737     3.06042
