  8
no_name:-229.119148923493
H      2.18135     0.24265     0.93175
C     -0.02761    -0.29237     1.20337
C     -0.92319    -0.61376     0.17768
C     -0.95171     0.23492    -1.02036
H     -1.56698     0.95348    -1.55701
C      1.16800    -0.03018     0.65950
C      0.42040    -0.16874    -0.62555
C     -0.53360    -1.26314    -1.06595
