 16
no_name:-309.102117667992
H     -0.49341     2.25606     1.65103
C     -1.03623    -1.62230    -0.11197
H      1.37241     0.54430     1.87438
H     -1.69500    -2.27087     0.46989
H      0.03747    -3.07232    -1.38364
C     -0.19648    -2.03426    -1.13553
H      1.33084    -0.90457    -2.32552
C     -1.09001    -0.17075    -0.09414
H     -2.00303     0.36032     0.18729
C      0.41444    -0.88767    -1.73164
C      0.16809     0.86172     0.04422
H      2.28843     1.33399     0.48289
C      0.18713     2.13398     0.80271
H      0.37899     3.05088     0.23585
C      1.31915     1.11257     0.94078
C     -0.17307     0.25245    -1.19306
