  8
no_name:-191.806676740341
C      0.26408     1.11161    -0.31154
H     -1.45584    -2.03892    -0.70027
H      0.50256     1.85813    -1.06972
H     -0.38576     1.31257     1.90493
C     -0.11002     0.88173     0.94192
C     -0.51603    -1.62322    -0.34294
C      0.73412    -1.64962     0.02568
C      0.14027    -0.28194     0.09955
