 13
no_name:-381.905312740361
C      0.06871    -1.20907    -0.62379
C      0.19779    -0.95428    -2.10798
C      1.16823    -0.27776    -0.14744
C      1.56602     1.37398     1.72031
C     -1.51888     0.41498     0.80142
C     -0.90645     1.49790     1.44984
H      1.13709    -1.25049    -2.58356
C      1.65387     0.34930     0.92568
H     -0.70783    -1.08743    -2.70647
C      0.23827     1.84210     1.80872
C     -0.85183    -0.07217    -0.30009
H     -2.21215    -0.24003     1.34040
C      0.26170     0.28798    -1.22149
