 17
no_name:-309.752667133727
C     -0.05771    -0.98935     0.47483
H      2.85451     2.04963    -0.68416
H     -3.54096     0.81128    -0.81362
C     -1.53991     0.26109    -0.31275
H     -1.94564    -1.94096    -0.27013
C      0.85753     1.30009    -0.55628
H     -2.21306     2.04438    -1.27524
H      0.44609     2.18377    -1.05891
H      1.95118    -1.54321     0.96333
H      2.66952     0.38994     0.14407
C      2.19882     1.24043    -0.35378
H     -2.12302    -1.14335     1.32954
C     -1.58622    -1.11447     0.36609
C     -0.09823     0.31264    -0.17431
H      0.62054    -2.76877     1.42311
C      0.89162    -1.80665     0.97971
C     -2.48229     1.08312    -0.82828
