  9
no_name:-229.867287134291
C     -0.09942    -0.08536     0.33774
C      1.12095     0.12816    -0.40037
H      1.26366    -0.03788    -1.48076
C     -2.65112     0.38309     0.11119
C     -1.45556     0.13708     0.20167
H     -3.70251     0.58653     0.02857
C      1.97531    -0.27602     0.66506
H      3.04628    -0.37318     0.82969
C      0.80890    -1.00491     1.03009
