 17
no_name:-384.495269629072
H     -3.51912    -2.11078     2.96069
C     -0.15808    -0.31046    -0.01653
C      2.43471     0.85328    -2.55296
C     -1.81793    -1.03073     1.59884
H     -0.09095     1.94450     0.05386
H      3.94932     2.36886    -3.37433
C      3.23857     1.66066    -2.99394
H     -1.26421    -2.16720    -0.09584
H     -2.03141     0.67672     3.32045
C     -2.78822    -1.39645     2.58594
C      0.76636     0.10041    -0.91994
C      1.50263    -0.08242    -2.06989
H      1.23272     1.12286     1.03458
H      1.35862    -1.00527    -2.64372
C     -2.16804    -0.23209     2.73843
C     -1.10058    -1.24113     0.46315
C      0.48283     1.01839     0.23139
