 15
no_name:-308.494706205462
H     -1.83236    -1.00064     1.92895
C     -1.17790    -1.45827     1.17679
C     -1.17387    -2.85860     1.09136
H     -1.18938    -5.15056     0.96580
C      0.34995     1.62139    -0.33906
H     -1.07141     1.23069     1.21597
H      2.42111     3.95223    -1.24658
C     -0.40529    -0.62439     0.36904
C     -1.18286    -4.07855     1.02357
C      1.01387     2.37821    -1.03438
C     -0.41872     0.76839     0.46449
H      0.24602    -1.08623    -0.37977
H      2.47787     2.71895    -2.53232
C      1.80231     3.27808    -1.86375
H      1.15417     3.91116    -2.49455
