 13
no_name:-194.995424237044
C      0.20912    -0.21716    -0.32574
H      1.10359    -0.53762    -2.38503
H     -0.94883    -2.17716    -0.70749
H     -1.27985     1.90166     1.98085
H      2.04051    -1.35492    -1.02963
C     -0.21275    -1.37776    -0.73367
H      0.96163     1.09611     1.14087
H     -1.20631     0.12195     2.05942
C      0.05775     0.99361     0.51136
H      0.07284     1.87932    -0.15119
C      1.08352    -0.90292    -1.34350
C     -1.20486     0.98519     1.37494
H     -2.10834     0.91482     0.74848
