  7
no_name:-191.142181851658
C      0.04132     0.40489     0.72088
C     -0.14257    -0.33716    -0.37499
H      0.79942     1.18705     0.49346
C     -0.24513    -0.98925    -1.47778
C     -0.37977    -1.67352    -2.56895
H     -0.13286     1.11161     2.62285
C     -0.57689     0.29568     2.00729
