  8
no_name:-266.620841523539
C      1.05736    -0.63706     0.57744
C     -1.82238     0.80105    -1.05486
C     -0.08604    -0.96092    -0.13593
C     -1.22867    -0.35489    -0.78113
C     -2.37190     1.93536    -1.30351
H      2.93314    -0.05325     1.75861
C      2.05141    -0.32389     1.20448
C     -0.99733    -1.75795    -0.74304
