 10
no_name:-193.068584068323
H      1.24162    -0.39431     1.24071
H     -0.77876    -1.28807     0.23275
H     -1.54636     0.08245    -2.06487
H      0.74599     1.27190     0.90799
C      0.77569     0.25198     0.48033
H     -1.51176     0.28276     0.56311
C     -0.66676    -0.20340     0.04150
C     -0.64714     0.10841    -1.43928
C      1.52217     0.27224    -0.82993
C      0.63155     0.43481    -1.81381
