 13
no_name:-195.065221758544
C      0.37555     1.00472    -0.30986
C     -0.29786     0.79208     1.02679
H      1.06125    -0.63844    -1.64133
H     -0.97209    -0.90211     2.18511
H     -0.68337    -0.32710    -1.66509
H      1.44310     1.26071    -0.16377
C      0.20201    -0.36632    -1.00988
H     -0.51830     1.60777     1.72091
C     -0.53228    -0.50404     1.26649
C     -0.05672    -1.38189     0.13112
H     -0.78621    -2.16027    -0.15049
H     -0.06207     1.83586    -0.88868
H      0.86726    -1.91808     0.42308
