 15
no_name:-308.456695150903
H      1.07210     3.71035     1.85764
C     -0.05202     0.57372     0.32134
C      0.55359    -0.85674    -1.43397
H      1.57819    -2.26665    -0.07753
C      0.37385     1.73499     0.88931
C     -0.59583     0.09674    -1.03892
H      1.03633    -0.92514    -2.40871
H     -1.01101     0.78049    -1.78895
C     -0.18885    -0.91046     0.71163
C      0.81924    -1.51424    -0.29137
C     -1.47984    -0.87704    -0.18140
H     -0.18762    -1.25733     1.75189
C      0.76266     2.78751     1.40526
H     -2.33205    -0.37660     0.30424
H     -1.77596    -1.82525    -0.65814
