 13
no_name:-307.211890625178
H     -3.27880     0.87724     0.96898
C     -1.20621     1.14411     0.70217
C      1.27179     0.09785     0.60394
C     -2.46462     1.42180     0.47114
C      1.88982    -0.84525    -0.17806
C      1.23376    -1.52663    -1.21912
H     -2.76387     2.21119    -0.23213
C      0.67722    -2.12482    -2.12559
H      0.17938    -2.64897    -2.91922
H      1.81001     1.52787     2.42202
C      0.05977     0.85546     0.92420
H      2.94267    -1.07619     0.01828
C      1.27468     1.01639     1.62455
