 14
no_name:-270.453279379769
H     -0.46014     4.17558     2.55503
C      0.08338    -0.42173    -0.64331
C      0.43687    -1.49854    -1.11239
C     -0.31932     0.80753    -0.12491
H      1.94360    -2.93376    -1.54029
H      0.34393    -3.61905    -1.17148
C     -0.80976     2.24344     1.80049
C      0.85764    -2.77713    -1.66693
H      0.63673    -2.83749    -2.74587
C     -0.42613     1.07362     1.27101
H     -0.17438     0.25737     1.96075
C     -1.18374     3.38381     2.31564
H     -0.56744     1.61321    -0.82450
H     -2.23898     3.60364     2.52996
