 17
no_name:-309.722045492951
H     -1.35812     3.37736     0.49178
H      2.43645    -1.77241     0.02576
C     -1.17380     1.26558     0.30254
C     -0.37673     0.06687     0.10193
H      1.42987     0.74556    -0.92292
H     -2.24703     1.10126     0.45538
C      0.19737    -2.21234    -0.18145
H      0.18680    -3.18421     0.32673
H      0.36324     2.74151     0.17110
H      1.63548     0.47599     0.81685
C      1.48781    -1.37879    -0.35813
C     -0.69764     2.52324     0.32301
H     -1.91672    -1.45332     0.22462
C     -0.86270    -1.19941     0.08568
H      0.45174    -1.64747    -2.43996
C      1.13373     0.08769    -0.08764
C      0.85183    -2.04189    -1.50121
