 17
no_name:-309.720350996236
C      0.99395     0.93204    -0.95470
C     -1.47762     0.61942     1.69377
H      0.78351     1.99221    -1.11253
H     -3.13421    -0.86536     0.94185
C     -1.29475     0.38331     0.17413
H     -1.83430     1.07922    -0.48609
H     -0.58591     0.44153     2.30909
H      0.16396    -2.14752     0.10154
H      2.78648    -1.46328    -0.16159
H      2.12368    -1.84322    -1.75075
H     -2.09864     1.45783     2.03787
C      0.04487    -0.01328    -0.33489
H      3.01780     0.71108    -1.75345
C      2.13287     0.28231    -1.28087
C      0.62283    -1.23988    -0.29207
C     -2.10279    -0.51580     1.01175
C      2.00225    -1.16387    -0.88445
