 15
no_name:-345.91007643928
C      1.20342    -0.46842     0.59098
C     -1.72693     1.36271    -0.61552
C     -0.01440    -0.76816    -0.13083
H      4.36385    -1.70183     2.03698
H     -0.69775     2.21058     1.13747
H     -2.93862    -0.05981    -1.57373
C      2.40536    -0.91942     1.14263
C     -2.00190     0.10074    -1.03014
C      3.44315    -1.34012     1.61826
H     -1.42101    -2.06457    -1.16970
C     -0.46332     1.75613     0.15465
H     -2.43355     2.16862    -0.83044
C     -1.14099    -1.07501    -0.80858
C      0.33664     0.52192     0.33069
H      0.12615     2.52926    -0.37644
