 10
no_name:-305.235218290298
C      0.44088     0.48650    -0.25941
H      0.50226    -3.31975     2.32624
C     -1.46106     2.15720    -1.19698
C      1.17884    -0.60261    -0.10632
C      0.90631    -1.63302     0.83235
C     -2.27906     1.68823    -2.09903
C      0.69586    -2.53009     1.62341
C     -0.25881     1.56839    -0.40777
C     -0.70637     2.88564    -0.23761
H      2.06853    -0.72035    -0.74515
