 10
no_name:-342.617802304698
C      1.39568     2.23114    -0.17147
C      1.08262     1.08765     0.45742
C     -1.17652    -1.72632     0.02125
C     -1.65220    -2.56535    -0.82147
H      1.03921     3.18911    -0.55186
C     -2.14941    -3.42377    -1.67631
C     -0.68936    -0.83638     0.87835
C      0.15216     0.24992     1.09371
C      2.43853     1.31509     0.01455
C     -0.57360    -0.19863     2.18422
