 12
no_name:-306.640572957722
H     -4.58663    -0.31509    -0.04795
C     -1.35959    -0.17916    -0.71157
C      2.16876     0.08712    -0.18682
C      3.39661     0.21797     0.39910
C      1.06730    -0.03006    -0.71097
C      4.49237     0.33386     0.92198
H      5.45748     0.43656     1.38147
C     -2.47945    -0.19155    -0.11720
C     -3.64761    -0.20552     0.50565
C     -0.18439    -0.16677    -1.35019
H     -3.71097    -0.10776     1.59501
H     -0.17526    -0.26857    -2.44554
