 16
no_name:-309.114073809109
C     -1.52529     1.20658     0.39279
H     -2.60111     0.65927    -1.45631
H      1.85084    -2.65868    -0.88033
C      0.62813     0.07039     0.42838
H      4.17602    -2.83700    -0.17243
H      4.03282    -1.24246     0.79711
C      2.27931    -1.88263    -0.23278
H     -3.39449     1.93012     1.32858
C     -2.63063     0.61794    -0.36062
C      3.56498    -1.99126     0.15245
C      1.40416    -0.82542     0.13387
H      0.15742     1.92264     1.42611
H     -3.12125    -0.27792     0.03923
H     -2.87434     2.86824    -0.16613
C     -2.79180     1.93943     0.41191
C     -0.24856     1.12851     0.78682
