 17
no_name:-309.743780800095
C      0.38748     0.93032     0.11485
C     -0.62184    -0.03480     0.75020
H      1.81681     0.31111    -1.56271
H     -1.99629    -1.42383    -0.31007
C     -1.34048    -0.56601    -0.52623
H     -1.91581     0.22050    -1.03974
H      0.75850    -1.39177     2.04209
H      1.71379    -2.14146    -0.45299
H      1.40905     2.76862    -0.14271
H     -0.09963    -1.41886    -2.28171
H     -1.25104     0.36920     1.55101
C     -0.07594    -0.96658    -1.28834
H      0.09025     2.73502     1.18233
C      1.00584     0.01790    -0.89492
C      0.64093     2.20772     0.39812
C      0.29685    -1.20011     1.07175
C      0.94079    -1.40099    -0.24463
