 13
no_name:-344.668199835539
C     -0.19111    -1.23082     0.06539
C      2.04594    -2.22049    -0.69986
C     -2.11626     3.19537     0.83573
C      3.19320    -2.72758    -1.09366
H      3.39874    -2.91785    -2.15412
C     -2.35338     4.38596     0.95312
C     -1.85029     1.86082     0.70525
C      0.92326    -1.72022    -0.31679
C     -1.61081     0.66500     0.58823
H     -2.56235     5.43430     1.05483
C     -1.35891    -0.71937     0.46106
H      3.98058    -2.98408    -0.37446
H     -2.18120    -1.40876     0.70519
