  9
no_name:-155.113964675546
C     -0.44233    -0.68877    -0.55090
C     -0.36313    -1.83395    -0.99872
C      0.53635     1.21875     0.80942
H     -0.30182    -2.83714    -1.37560
H     -1.39742     1.19391    -0.31089
H      0.11347     1.54655     1.77704
H      1.36210     0.52170     1.01191
C     -0.51557     0.59404    -0.05481
H      0.95683     2.12385     0.33268
