 16
no_name:-346.467799591913
H     -1.44042     0.44233     3.33451
C      0.59342    -1.24249    -1.32402
C      2.30611     0.58559    -2.07867
C     -1.18655    -0.16610     1.29182
H     -0.42985     0.55956     0.96728
H      3.38198     1.71738    -3.53286
C      3.18790     1.53333    -2.47112
H     -2.00098    -2.09505     0.90788
H     -2.78089    -0.55778     2.69646
C     -2.05282     0.22635     2.44115
C      1.48784    -0.28964    -1.72256
C     -1.26269    -1.33605     0.62548
H     -2.60292     1.15678     2.21414
H      3.73702     2.13378    -1.73840
C     -0.39985    -1.65521    -0.47921
C      0.00421    -2.55351    -1.47357
