 10
no_name:-305.211263495607
C      1.13468    -0.34769     0.98256
C      0.02497     0.48715    -1.18143
C     -0.02952     0.02289     0.14477
H     -1.43677     1.28211    -2.83022
C      0.44794    -1.13886     1.89156
H      2.17996    -0.33891     0.67211
C     -0.52856     0.97969    -2.30777
C     -1.01498    -0.69667     0.88247
C     -0.85205    -0.91792     2.19433
C      0.86099     0.85456    -2.29745
