 11
no_name:-343.282243136703
C      1.57497    -0.19565     0.41726
C      2.02696    -0.70399    -0.76317
C     -0.44273     0.69473     1.65567
C     -2.10114     0.91079     1.16244
H      3.03423    -1.58896    -2.64431
C      2.55972    -1.17617    -1.77360
C      0.20442     0.16425     0.54162
H     -3.06023     0.46205    -0.80476
C     -2.19802     0.48860    -0.14130
C     -1.49186     1.17215     2.34294
C     -0.88885     0.10865    -0.36543
