 18
no_name:-347.859975411542
C      0.08069     0.77543     0.19839
C     -1.18264     1.57970     0.06387
C     -2.23756     0.82901     0.50861
C     -1.79508    -0.49336     0.87101
H      0.16519    -2.63669     1.06462
H     -2.43996    -1.30002     1.22366
C     -0.42272    -0.59260     0.63375
H      0.53238     0.41597    -1.89662
H      3.07907    -0.33757    -1.13634
H     -3.27130     1.17313     0.58397
H     -1.21874     2.62292    -0.25354
H      2.50787    -2.29991     0.21492
C      2.09306    -0.40701    -0.66813
C      1.07515     0.66976    -0.96258
H      1.56627     1.63893    -1.14679
C      1.77183    -1.50020     0.08823
H      0.64421     1.18387     1.06605
C      0.46788    -1.66676     0.66116
