 10
no_name:-193.083934152727
C     -0.71585     0.83913    -0.47604
H     -2.34096     1.66468     0.84309
H      2.00878    -0.06452    -1.06899
C      0.22759     0.00531     0.09975
H      1.47674    -1.63522    -0.41478
H      2.22861    -0.44602     0.67483
C      1.56240    -0.55829    -0.19360
H     -2.54291    -0.07922     0.34010
C     -1.83881     0.74312     0.51958
C     -0.55586     0.34189     1.19196
