 12
no_name:-306.508649945409
C     -1.03886     0.94479    -0.11605
C      0.70378    -1.03628    -0.60651
H      0.70085    -1.35415    -1.64578
H      2.44806    -1.86248     0.69460
H      0.99759     0.19712     2.26092
H     -2.40758     1.60134    -1.89989
C      1.51389    -1.32250     0.55281
C      0.84770    -0.28610     1.29918
C     -1.92789     1.53099    -0.92309
C     -1.83547     2.01769     0.39749
C     -0.04420    -0.04170     0.16661
C      1.54999     0.25030    -0.08024
