 13
no_name:-269.745969805284
C     -0.57773     0.84667     0.14576
H      1.12818     1.35559    -1.37921
C     -0.14306    -0.31023     1.07776
H     -1.26471    -0.67257    -1.36561
H      0.13443    -2.65063     0.57030
H     -0.95495     1.78247     0.56210
C     -0.92665     0.36250    -1.23036
C      1.25903    -0.60702     1.32817
H     -1.39917     1.08940    -1.89727
C      0.50349     0.62513    -0.86197
H      1.99549    -0.63463     2.12456
C      0.35002    -1.58586     0.56784
C      1.14416    -0.57391    -0.12184
