 12
no_name:-306.560516609868
H      1.99042     1.06309     0.41796
C      0.99465     0.61986     0.33488
C      0.61836     0.11305    -1.00927
C     -1.11421    -0.03814     1.24447
C     -1.52298    -0.58960    -0.21603
H      1.37116     0.23025    -1.79318
C     -0.55920    -0.46928    -1.33013
C      0.21589     0.57596     1.43957
H      0.53723     0.96231     2.40770
H     -0.79003    -0.82646    -2.33461
C     -1.39195    -1.42778     0.95523
C     -2.20557     0.49286     0.45797
