 14
no_name:-270.432478604176
C     -0.17015    -0.72427     0.94951
H     -1.86492    -1.55539    -0.23988
H      2.08713    -1.09732     0.71483
H      2.18871     1.28943    -0.41666
H     -0.34289    -1.46905     1.73649
C     -1.29254     0.51389    -0.43889
H     -2.04736     1.02056    -1.04645
C      1.30747     0.81942     0.02404
C      1.25614    -0.39639     0.60917
C     -0.95618    -0.96034    -0.41168
C     -0.03977     1.42740     0.05213
H     -0.21414     2.48600    -0.15704
H     -0.36980    -1.39649    -1.23860
C     -0.89851     0.66579     0.98005
