 10
no_name:-305.307968112061
H      0.62994     3.67302    -2.76136
C      1.14822     1.93154    -1.18870
C     -0.14834    -0.94053     0.98790
H     -0.89367    -3.74517     3.21378
C      0.42087     2.84487    -2.10088
C     -0.67430    -2.92309     2.55853
C     -0.42613    -1.98594     1.81641
C      0.11025     0.00165     0.24094
C     -0.44801     2.01432    -1.57027
C      0.37189     1.05067    -0.59671
