 17
no_name:-309.763987149548
C      0.39084     0.11532     0.00548
C     -0.84690    -0.40999    -0.37012
H      3.73719     0.33426    -0.08967
C      2.67078     0.44981     0.11307
H      2.50847     1.28641     2.11083
H     -4.06647    -0.83912    -0.56914
C     -1.94671    -0.85374    -0.67907
H      0.03348     2.13982     0.71193
C      2.11025     1.44905     1.09240
H      0.14765     0.94161     2.00121
H      1.81062    -1.06566    -1.21996
C      0.57361     1.22935     1.02444
C      1.66701    -0.27961    -0.47612
H     -3.40636    -1.33562    -2.14662
C     -3.24599    -1.39299    -1.05570
H     -3.34340    -2.45392    -0.76475
H      2.39416     2.48319     0.82353
