 12
no_name:-231.832006120136
H     -1.61391     0.85413    -0.42858
C      0.75035    -0.16153     0.38475
H      2.08996     1.75120     2.71814
C     -1.33238    -0.07529    -0.93534
C      1.52481     0.32470     1.26632
C     -2.14490    -0.60306    -1.86913
H      3.27694     0.32961     2.44545
C      2.33598     0.82655     2.18431
H     -3.08940    -0.12509    -2.13961
H     -1.88547    -1.53084    -2.38932
C     -0.06646    -0.67000    -0.53869
H      0.22420    -1.60231    -1.04262
