  7
no_name:-153.780642488692
C      0.57056     0.38106    -0.85453
C     -0.37745    -0.16896     0.38241
H     -1.36842     0.29173     0.47275
H      0.13319    -0.41028     1.32337
C      0.78362     1.54962    -0.30382
H      0.08518    -1.82806    -1.32609
C      0.00040    -0.84941    -0.86494
