 11
no_name:-343.308899175637
C      1.56857    -0.45097     1.86658
C     -0.17165     0.70196    -1.36406
C      0.10526     0.16785    -0.06086
H     -2.02674     1.01510    -2.76009
C      0.29742    -0.81651     2.22413
H      2.50263    -0.54378     2.41644
C     -1.01472     1.00275    -2.35411
C     -0.74556    -0.38611     0.87465
C     -1.03538    -0.95880     2.05697
C      0.35291     1.31354    -2.54268
C      1.33469     0.07217     0.60401
