 10
no_name:-342.701252936921
C      0.76343     2.60777     1.08539
C     -0.32842    -1.66813    -0.67677
C      0.98624     0.19827     0.36700
C     -0.56666     2.86455     0.73114
C      1.19030     1.37491     0.82022
C     -0.19863    -0.33485    -0.19856
H     -0.53830    -3.81325    -1.44705
C     -1.23808     0.62775    -0.22666
C     -0.43946    -2.80594    -1.08521
C     -1.21151     1.83812     0.18023
