 15
no_name:-345.922031868003
C     -2.50711    -0.02692    -0.58569
C     -1.70899     0.48134     0.19355
H      4.26546    -1.23689     0.95022
H      4.53727     0.18402    -0.23867
H     -4.88132    -1.54366    -2.92333
H     -1.24453     1.76947     1.83895
C      3.83709    -0.43574     0.33516
C      2.54760    -0.23383     0.28207
C     -3.39579    -0.59247    -1.45771
C      0.53022     0.85660     1.13711
C     -4.18292    -1.10067    -2.23867
C     -0.81186     1.07849     1.10678
H      1.12415     1.37733     1.89350
C      1.24207    -0.02856     0.23287
H      0.65117    -0.55276    -0.52946
