 13
no_name:-344.620790717672
C      1.86322     1.11871    -0.20962
H     -4.35652    -2.48976     1.12597
C      2.62185     1.54236    -1.30157
C      0.78096     0.49399     0.29781
H     -0.76157    -0.36938     2.20529
C     -0.44783    -0.22924     0.12457
C     -2.37933    -1.33504     1.15998
H      3.87631     2.23787    -3.08792
H     -0.79990    -0.45577    -0.88579
C      3.28934     1.91277    -2.24864
C     -1.15699    -0.62091     1.21304
C     -3.42876    -1.94802     1.14234
C      1.71016     1.05475     1.21208
