 13
no_name:-232.405145576892
H     -0.48650    -1.84179    -0.78407
C     -0.21864     0.45993    -0.45080
H      2.09617    -1.43028     0.40400
H     -2.08013     0.84059    -1.43850
H      0.04852    -2.26065     1.70046
H     -0.40817    -0.50890     2.06981
C      1.20885    -0.79905     0.49733
H     -0.95215     2.31913    -1.21160
C     -0.18457    -1.02898    -0.11957
C      1.08106     0.64198     0.10903
H      1.70573     1.51863     0.29417
C     -1.14137     1.25296    -1.06087
C      0.02575    -1.21984     1.35784
