 16
no_name:-346.464696266483
H      0.42182    -2.69390    -1.18885
C     -0.67954     0.42941    -1.35114
H     -0.98355     1.36319    -1.82790
C      1.04836    -1.23319     0.39794
H     -1.23606     2.25902     0.82953
C      0.20234    -1.65393    -0.93171
H     -1.60142     0.95246     2.00330
C     -0.10731    -0.63818    -1.95734
C     -0.65867     0.21468     0.11279
C     -0.90110     1.28036     1.21651
H      0.11645    -0.73997    -3.02051
C      0.79100     0.15399     0.67745
H      1.80091    -1.91600     0.79532
C      0.56928     1.11869     1.61217
H      1.12781     1.43457     2.49700
C     -0.49511    -1.33565     0.32546
