 13
no_name:-307.199020622162
C     -0.40834    -0.29716    -0.48758
H      1.22847    -0.53967     0.95484
H     -0.22369     3.64252     0.07082
C     -0.95736    -2.77605    -1.23222
H      2.11975     2.95657     2.10036
C     -0.63486    -1.56408    -0.81873
C      0.74247     1.49757     0.72246
C      0.39368     2.88391     0.54772
H     -1.48855    -4.92191    -1.93258
C     -1.24255    -3.92725    -1.61485
C      0.58570     0.18716     0.45193
C      1.37221     2.59782     1.39529
H     -1.02960     0.48012    -0.96568
