 15
no_name:-345.85896080852
C     -0.23934     3.43490     1.39129
C      0.87612    -0.96575    -0.60514
H     -0.21429     5.63527     2.04120
C     -0.25045     2.12779     1.00327
C     -1.06562    -2.32091    -0.52265
C     -0.22373     4.60581     1.73520
H      0.62568    -2.88979    -1.77085
C     -0.26981     0.94848     0.65700
H      1.39471    -0.17388    -1.16885
H     -1.49495    -3.32776    -0.46186
C      0.06156    -1.98761    -1.47931
H      1.63925    -1.50414    -0.01571
C     -0.24933    -0.39198     0.25486
H     -0.26531    -1.49887    -2.41634
C     -1.28672    -1.31025     0.36384
