 10
no_name:-230.577245642784
C      1.31571     0.06938    -0.68319
C     -0.68128    -1.00790     0.20836
H      1.60950    -0.86086    -1.17308
C      0.17810     0.13353     0.04792
C     -1.41704    -1.96140     0.35327
H      1.95570     0.94681    -0.79368
H     -2.06546    -2.80836     0.47772
C     -0.23096     1.34625     0.70302
H     -0.90406     3.26242     1.75438
C     -0.59075     2.36098     1.26193
