 13
no_name:-381.935289586955
C     -0.95451     0.74551     0.36824
H      3.41250    -1.56869    -1.76518
C      2.38028    -0.65996     0.49192
C     -2.20135     0.83540     0.17806
C      3.15657    -1.54860    -0.69965
C     -3.52199     0.92001    -0.02704
C      3.79209    -0.94391     0.43876
H     -5.79589     1.06597    -0.38073
C     -4.73604     0.99970    -0.21620
C      1.63852     0.56550     0.74858
C      0.32541     0.65892     0.56516
C      2.00555    -1.98032     0.03282
H      2.21850     1.42307     1.11559
