 13
no_name:-232.401577769162
H      0.83686     0.97161    -0.60426
C      0.01576     0.27843    -0.40068
H     -2.22242     0.42296    -0.30028
C      1.18134    -0.30788     1.74935
C      2.11859    -0.16580     2.53461
H      2.93511    -0.04455     3.22057
C      0.13183    -0.45867     0.86654
H     -0.16568    -0.18437    -2.59150
H     -0.95894    -1.42471    -1.49085
H     -1.43711     1.67532    -1.39357
C     -0.61318    -0.39430    -1.61579
C     -1.35848     0.69567    -0.91358
H     -0.66501    -1.16961     1.11776
