 10
no_name:-230.512194800757
C      1.17808    -1.30698     0.79224
C     -2.36403     1.32298    -1.08591
H      1.70238     0.67374    -0.19564
C     -1.46074     0.72802    -0.53353
H      2.07012    -1.34893     1.43255
H     -3.17252     1.84784    -1.56023
H      0.89073    -2.29226     0.40819
C     -0.41189     0.00600     0.06377
C      0.99204    -0.16383    -0.11710
C     -0.06773    -0.51928     1.29530
