 13
no_name:-194.919825959683
H     -2.17451    -0.52035    -0.81339
H      1.12592    -1.00294    -1.45178
C     -0.07917     0.34969    -0.24322
C     -0.33352     1.00590     1.14078
C      1.16933    -0.48453    -0.47927
H     -0.04777     2.04845     1.36474
H      0.08595     0.37971     1.95620
H      2.07657     0.14259    -0.47337
H     -1.31276    -1.30960     0.52376
H      1.28594    -1.25176     0.30550
H     -0.18221     1.10788    -1.03609
C     -1.44876    -0.34065    -0.00121
C     -1.80689     0.66595     1.07102
