 17
no_name:-384.434161819479
H     -2.41197    -0.68067     3.95429
C      0.75317     0.12944    -0.52643
C      2.51852     0.56002    -2.36707
C     -1.75910     0.00795     2.01462
H     -1.74592     1.08272     2.24729
H      2.62920     1.07113    -4.75057
C      2.91792     0.85733    -3.72293
H     -2.08921    -1.18786     0.12283
H     -2.67752    -1.85449     2.64311
C     -2.70051    -0.78333     2.89672
C      1.60501     0.34072    -1.41977
C     -1.59510    -0.31977     0.58493
H     -3.73562    -0.41994     2.79056
H      4.94486     0.65954    -2.60108
C     -0.18491    -0.06404     0.44707
C      3.88085     0.68727    -2.82949
C     -0.31384    -0.50423     1.77147
