 19
no_name:-385.914643901792
C     -2.61290     1.41513     0.67534
C     -2.24331     0.77281    -0.54216
C     -0.09086    -0.41165    -1.25977
C     -1.57221     1.35219     1.59613
H     -1.57094     1.75774     2.60746
H      2.65661     0.14597     0.45093
H      2.03066    -1.36581     1.06112
C      1.23536    -0.80551    -0.86590
C     -0.92392     0.28056    -0.40189
H      1.71544    -1.75719    -2.72260
H      3.05987    -1.79375    -1.42618
C      2.05056    -1.49015    -1.71711
H      1.09371     0.57555     2.41507
H     -0.43115    -0.67545    -2.26545
H     -2.86838     0.67616    -1.42999
H     -3.57960     1.88915     0.85528
C      0.76070     0.30803     1.40693
C      1.72299    -0.44251     0.53414
C     -0.47358     0.64544     0.97159
