 13
no_name:-307.203150758404
H      0.67925     3.83452     2.00475
C     -0.33881     0.61875     0.49705
C      0.47395    -0.80375    -1.34595
H      1.57899    -2.20963    -0.05886
C      0.02506     1.84533     1.07847
C     -0.60732     0.13795    -0.99167
H      0.91124    -0.92869    -2.33636
H     -1.07517     0.84135    -1.68225
C     -0.06468    -0.90249     0.85869
C      0.81059    -1.44937    -0.19788
C     -1.34954    -0.34845     0.24985
H     -0.02101    -1.18044     1.91292
C      0.38181     2.90033     1.56657
