 11
no_name:-156.332495045453
H      0.84511     0.20970    -1.74010
C      0.16105    -0.29765    -1.03123
H     -1.57322     0.60420     0.08982
C      0.22802    -0.21276     1.16957
H     -0.45813    -0.73112     1.86858
H     -0.56476    -0.86650    -1.64584
H      0.95230     0.34586     1.79500
H     -0.14883     1.67752     0.00513
C     -0.47389     0.62775     0.05545
C      0.81789    -1.06297     0.08138
H      1.47430    -1.93742     0.09513
