 16
no_name:-383.938070625552
C      0.53945    -0.38429    -0.21000
C     -1.32592    -1.20076    -1.56258
C      2.60424     0.14979     0.97280
C     -1.78005     0.67217    -0.13599
H      1.06922    -1.19902    -0.71073
H     -2.01353    -2.73849    -3.11106
H      0.74709     1.19782     1.20018
C     -1.68764    -2.01826    -2.38416
C     -0.86814    -0.24797    -0.59297
H     -1.36347     3.41247     2.31809
C     -1.57193     1.70104     0.80806
H      4.81340    -0.16824     1.48489
H     -2.79312     0.60971    -0.54653
C      1.23471     0.37265     0.67539
C      3.77737    -0.01598     1.24725
C     -1.46832     2.61283     1.60884
