 10
no_name:-230.488486558764
H      0.81883     1.99300    -0.96280
H      2.23244     0.49300     1.05610
C      0.64003     1.07100    -0.41083
C     -0.44633    -1.30095    -0.46300
C     -1.15778    -0.51556     0.61895
H     -2.06592    -0.56923     1.21472
C      1.29123     0.38003     0.51937
C     -0.57811     0.15754    -0.54855
H     -0.58023    -2.21001    -1.04455
C      0.28698    -0.76045     0.68698
