 13
no_name:-381.953988772298
H      2.15707     1.16071     0.18164
C     -0.45509    -0.73263     0.93362
C      1.38612     0.67622    -0.42920
C     -1.44988    -0.94683     1.64130
H     -0.12727     2.69869    -3.15388
C     -2.54143    -1.18507     2.40919
C      0.63544    -0.46017     0.17422
H     -4.39218    -1.58648     3.71159
C      1.63758    -0.97310    -0.61578
C      0.81503     1.43933    -1.49386
C      2.70435    -0.94216    -1.35837
C      0.31274     2.11008    -2.36995
C     -3.52717    -1.39900     3.10228
