 13
no_name:-232.382009898718
H     -0.27265    -1.69852    -0.97880
C     -0.47442     0.34607    -0.23504
H      1.71542    -1.64847     0.70476
H     -1.98778     0.75417    -1.65791
H     -1.30489    -1.62092     0.48925
H      1.34938     0.06097     2.73727
C      0.83049    -1.01428     0.81956
H     -0.94377     2.21150    -1.11956
C     -0.44673    -1.16491    -0.03181
C      0.71989     0.59181     0.63109
H      1.49379     1.33804     0.41948
C     -1.17169     1.14429    -1.04298
C      0.63245    -0.09803     1.92856
