 14
no_name:-270.463248368253
C      0.88433    -0.43212    -0.81919
C     -0.37539    -0.63225    -0.14698
C      1.65805     0.44767    -0.02224
H      1.16035    -0.83576    -1.79325
C     -0.38553     0.19691     1.11003
C      0.95705     0.84055     1.11087
H      2.65775     0.79705    -0.28826
H     -0.80480    -0.18471     2.05396
H      1.33557     1.47995     1.90851
H     -2.43786    -1.39991     0.21826
H     -1.27658     1.45421    -0.62230
H     -2.11591    -0.85550    -1.50612
C     -1.82554    -0.77715    -0.45152
C     -1.37358     0.57597     0.01748
