  9
no_name:-267.192683255514
C      1.07697     1.05617     0.78456
C      0.15483     0.11906     0.18014
C     -0.90700     0.15794    -0.75512
C      0.54426     0.49630     2.03429
C     -1.37948     0.00282    -1.99828
H     -1.16452    -0.27568    -3.03081
C      0.59227    -0.69156     1.23476
H      1.02232    -1.69209     1.32224
C     -2.29493     0.44163    -1.02965
