 11
no_name:-305.814186004381
H     -1.91667     1.79956    -1.05608
C     -1.51690    -0.25062    -0.39590
H      1.90294    -2.22155     1.62904
C     -1.53024     1.24361    -0.18501
C      0.88951     0.61376     0.03638
C      0.88161    -0.85930    -0.17914
C      1.82132    -1.88327     0.60264
H     -2.13638     1.54960     0.68482
C     -0.05005     1.43338     0.02967
C      2.02121    -1.72396    -0.65424
C     -0.56917    -1.07022    -0.39422
