 15
no_name:-308.450343395992
H      1.46458     0.76527     1.53656
H      0.84937     2.25517    -0.52852
C     -0.89883     0.93720    -0.09920
C     -2.12120     0.49188    -0.71068
H      0.12661     1.44201    -2.01779
H     -1.01691     1.40176     0.88604
C     -3.14670     0.10614    -1.23155
H     -4.05978    -0.22691    -1.68744
C      0.38574     0.08285    -0.26184
H      0.26413    -0.79277    -0.90416
C      1.83961    -1.31409     1.22952
H      2.79715    -3.33872     1.76980
C      2.34990    -2.39654     1.51558
C      1.26821    -0.10310     0.89607
C      0.25697     1.42979    -0.93304
