 17
no_name:-347.268088154238
H     -1.29228    -0.52829    -2.65760
H      2.80039    -1.68124    -0.64453
H      0.86046    -1.37942    -2.16159
C      0.84797    -0.92039    -1.16919
C     -0.27139    -0.17257    -0.78545
H      2.78385    -0.63710     1.62772
C      1.94129    -1.09107    -0.31565
C      1.93303    -0.50825     0.95445
C     -0.27377     0.41728     0.50502
C      0.83103     0.24182     1.36080
C     -1.39615     1.19267     0.93911
C     -2.35318     1.84879     1.29826
H     -3.19517     2.42913     1.62520
H      0.80896     0.70488     2.34947
H     -1.61269     1.07332    -1.93583
H     -2.37544    -0.36031    -1.24691
C     -1.44491     0.00732    -1.70954
