  8
no_name:-266.5456539347
H      1.36203     0.27073     1.71599
C     -1.19645    -0.36931    -1.44078
C     -0.71528    -1.35338    -0.50763
C      0.08539    -1.10449     0.46756
C      0.68489     0.09837     0.88090
C     -0.60127     0.89051    -1.04821
C      0.18468     1.02768    -0.06216
C     -2.04361    -0.49716    -2.51171
