 16
no_name:-346.529953555303
H      2.09208     2.69631     3.87795
C      0.79617     0.18016     0.23065
C      0.52958     1.03787     1.27617
C     -1.92004    -1.22013    -2.34865
C      1.53445     1.51761     2.18389
C     -1.62545    -2.09686    -3.40624
C      1.29202     2.35974     3.21453
H      0.28286     2.73228     3.41699
H     -1.18754    -3.53584    -5.13950
C     -0.98606    -0.74223    -1.46825
H     -0.50140     1.37544     1.42866
H      2.55940     1.16589     2.01257
C     -1.39442    -2.86362    -4.32828
H      1.83185    -0.15431     0.08344
H     -2.96428    -0.90264    -2.22716
C     -0.15240    -0.29934    -0.66121
