 18
no_name:-310.29724262069
C     -0.59944    -0.59990     0.54151
C      0.20919     0.44719     0.17788
H     -2.30587    -0.42579     1.84487
H     -0.92870    -1.24874     2.56995
H      1.44554    -1.59598    -1.26781
C     -1.20019    -0.41745     1.89161
H     -1.38069     1.70575     2.54298
H      0.55889     0.62020    -3.30523
C      0.40535     0.03318    -2.39522
H     -0.56391    -0.47372    -2.34753
C      0.96209     0.58143    -1.09607
H      2.57171    -0.50586    -2.22697
H      1.51861     1.52017    -1.15289
H     -0.00565     0.89570     3.23450
H     -0.80285    -1.48774    -0.07028
C      1.59017    -0.62897    -1.76038
C     -0.60966     0.94722     2.30783
C      0.26181     1.47415     1.21287
