 13
no_name:-195.004126097007
H     -0.75277     1.80978    -0.38351
C      0.02463     1.15812     0.01441
H     -2.03646    -1.07358     0.60406
C     -0.02552    -0.30962     0.32903
H      2.03088     1.16170     1.04445
C      1.50596     1.36203     0.09648
H      1.92142     2.19934    -0.47628
H      0.39565    -0.62820     1.29860
H     -1.59831    -0.76418    -1.09568
H      1.02508    -0.00964    -1.75292
C     -1.21411    -1.12653    -0.12796
H     -0.94359    -2.18840    -0.24703
C      0.94071     0.22058    -0.69121
