  9
no_name:-267.209759079626
C      0.63652     0.27346     1.06738
C      1.20817     0.29825    -0.16891
C     -1.04502    -0.57963    -0.38732
C      0.17064    -0.15813    -1.12642
H      2.25939     0.42176    -0.42471
C     -0.82168    -0.29477     0.92604
H     -1.84473    -1.17692    -0.82262
C     -0.40552     0.55741     1.94165
C      0.48363    -0.66124    -2.32089
