 11
no_name:-305.840652569787
H      1.85874     2.42909    -1.59980
C     -0.37056    -1.32125     0.39434
C     -0.06265    -0.02829     0.00244
C     -1.48632    -1.63084     1.13169
H      2.49385     0.66300    -1.73639
C      0.71692     0.92178    -0.64106
C     -2.43583    -1.89296     1.95413
C     -0.52802     1.32990     0.09129
H      0.32887    -2.10699     0.07920
C     -1.35946     2.26167     0.47653
C      1.74603     1.36917    -1.36673
