 11
no_name:-305.936974735807
H     -1.24148    -1.96361    -2.16878
C     -0.73874    -1.39209    -1.38885
C      0.32347    -1.90483    -0.49778
C      0.73358    -0.93120     0.36087
H      1.49444    -0.98434     1.13702
C      0.02790     1.45749     0.66982
C     -0.94587    -0.10581    -1.04067
C      0.13422     2.58941     1.27682
C      0.23864     3.72794     1.88359
C     -0.06181     0.28595     0.06002
H      0.71451    -2.92317    -0.53409
