 13
no_name:-307.20082302774
H     -0.83379     3.99272     1.70800
C     -0.57504     2.06634     0.49892
C     -0.09472    -0.98010    -1.25389
H      1.69177    -2.47827    -0.61400
C     -0.71353     3.08474     1.14731
C     -0.42971     0.86216    -0.23164
H     -0.70952    -1.48460    -2.01474
H      0.68700     1.11284    -2.17830
C      0.21778    -1.49883     0.78798
C      0.82519    -1.85239    -0.38029
C     -0.69348    -0.56436     0.10284
H      0.42423    -1.70483     1.84043
C      0.16543     0.52063    -1.42160
