 14
no_name:-270.463244830237
H     -1.31274     0.34729     2.37237
C      1.18447     0.02756     0.22563
H      2.00440    -0.97864    -1.66149
C      1.14008    -0.57105    -1.13690
C     -0.22635     0.50716     0.44333
H     -0.46945    -0.85707    -2.61317
C     -1.01225     0.16444    -0.71605
H     -2.08688     0.30948    -0.82545
C     -0.14896    -0.46861    -1.64437
H      2.05555     0.63074     0.52525
H      0.24921     1.30879     2.46992
H     -0.01932    -1.64634     1.28813
C     -0.33002     0.54577     1.92804
C      0.38645    -0.63489     1.33806
