 19
no_name:-385.822091293665
C     -2.06287     1.39626     0.98142
C     -2.01456     0.75177    -0.33591
C     -0.00486    -0.64244    -1.32267
C     -0.99427     1.02546     1.73840
H     -0.80745     1.31482     2.77353
H      1.66144     1.00194     0.49740
H      1.92579    -0.55799     1.30835
C      1.25280    -0.68717    -0.78853
C     -0.90879    -0.04486    -0.36857
H      1.86575    -2.50335    -3.15978
H      3.41293    -0.92743    -0.90975
C      2.47286    -1.21810    -1.40353
H     -0.43537    -0.98447     1.47690
H     -0.26109    -0.94009    -2.34103
H     -2.70101     0.96027    -1.15797
H     -2.85405     2.08069     1.29684
C     -0.22361    -0.01554     0.97769
C      1.27775    -0.02861     0.59180
C      2.54650    -2.01071    -2.46424
