 17
no_name:-309.762566790261
C     -1.92071     1.31414    -0.11873
C     -0.80350     0.46795    -0.12018
C      1.54819    -1.27973    -0.13884
H      0.57428     2.02544     0.44617
C      0.13851    -1.79013    -0.22822
H      2.18108    -1.99973     0.40783
H      0.88884     1.30603    -1.13339
H     -3.72246     2.73927    -0.11136
H      2.62065     0.52258     0.45496
C     -2.87686     2.07814    -0.11612
C      1.60519     0.10122     0.52630
C     -0.94281    -0.94316    -0.19527
H     -0.02492    -2.86700    -0.33020
H     -1.95436    -1.35579    -0.24423
C      0.58826     1.06582    -0.09403
H      1.37892    -0.01149     1.60078
H      1.98323    -1.22350    -1.15810
