 15
no_name:-345.914316634365
C     -4.75049    -0.33276     2.45595
H     -5.70354    -0.06692     2.87291
H      3.54192     1.83473    -1.43582
H      1.06036     0.28731    -2.45911
C     -3.66846    -0.63010     1.97945
H      2.48281     0.40554     0.33562
C      1.72660     0.07382    -0.39080
C     -1.36832    -1.26380     0.96642
C     -2.45407    -0.96805     1.44572
H      2.80788     1.87348    -3.15235
C      1.82167     0.62066    -1.74596
C      2.77171     1.48618    -2.13138
C      0.80667    -0.77424     0.01474
H      0.08969    -2.71463     0.31274
C     -0.11177    -1.63700     0.41571
