 14
no_name:-270.529310142842
C      1.08959    -0.94043    -0.52079
C     -1.25637    -1.42747    -0.15456
H      0.16995    -2.85514    -0.95449
C      0.90456     0.36228    -0.04273
C     -0.35921     0.81060     0.39233
H     -1.34345     2.73653     0.31019
H     -2.10900    -2.11183    -0.19163
C      0.02035    -1.83844    -0.58035
H      1.75314     1.05290    -0.00258
C     -1.37003    -0.13420     0.30435
H      2.08271    -1.25607    -0.85014
C     -0.58542     2.20856     0.91144
H      0.34364     2.79693     0.88598
H     -0.95278     2.19079     1.95058
