 13
no_name:-195.027193470732
H     -0.66939    -1.56822    -0.30859
C      0.93629    -1.00030     1.13320
C      0.32431     0.46448    -0.25102
C     -1.03156     1.14753    -0.37930
C      0.33347    -1.11000    -0.25494
H     -0.95361     2.22877    -0.17632
H     -1.75487     0.72327     0.33705
H      1.02924     0.88451    -0.99219
H      0.97195    -1.57496    -1.02624
H      1.26704    -1.75564     1.85233
H      1.23573     1.09506     1.87557
H     -1.44448     1.02707    -1.39490
C      0.92679     0.34300     1.14287
