 11
no_name:-268.518551329731
H     -0.07181     3.36025     1.33789
C     -0.46318     1.33371     0.35804
C      0.60697    -0.64839    -0.78642
H      1.33093    -2.72153    -0.63672
C     -0.24231     2.40615     0.87532
C     -0.68422     0.04705    -0.28734
H      1.37100    -0.14251    -1.38364
H     -1.35139     0.18618    -1.15947
C     -0.66135    -2.09410     0.32339
C      0.59203    -1.95483    -0.40520
C     -1.32701    -1.07544     0.56943
