 16
no_name:-346.634434250254
C     -0.11341     0.98359    -0.18708
C     -2.39533     0.71513     0.32940
H     -3.13803    -1.25720     0.85140
C      0.06540    -0.40457     0.03641
H      1.99607    -1.17476     0.70407
C     -2.28178    -0.64240     0.56074
H      3.18050     0.72237    -0.80674
H     -1.53663     2.64527    -0.20778
C      1.51909    -0.74378    -0.19606
H      1.34489     2.61416    -0.78783
H      1.64979    -1.49317    -0.99904
C     -1.00226    -1.21708     0.40663
C     -1.38050     1.57592    -0.03946
H     -0.86066    -2.28852     0.57847
C      2.12413     0.58855    -0.56781
C      1.18412     1.55922    -0.55847
