 11
no_name:-305.942625665344
C      0.62748     2.41846    -1.77351
H      0.66209     3.36930    -2.31373
H      0.31463    -4.56637     2.23612
H      1.38250     1.66143    -1.99594
C     -0.32311     2.21477    -0.87214
C     -0.91097     1.20100     0.16175
C     -0.15221    -2.44671     1.48825
C      0.09584    -3.57368     1.88832
C     -0.68989    -0.05299     0.64991
C     -0.42939    -1.19085     1.04597
C     -1.43970     2.40244    -0.04416
