 11
no_name:-268.542063679189
C     -0.05673    -0.39768    -0.05617
C     -0.00035    -1.78755    -0.46931
H      0.90305    -2.05508    -2.60791
C     -0.07058     0.38428     1.03709
H     -0.73119    -2.57284    -0.21469
H     -0.30939     4.08515     0.99471
C     -0.15957     1.80126     0.99960
C     -0.23773     3.01394     1.00386
H      0.02309    -0.09221     2.01930
C      0.52228    -1.49298    -1.75658
C     -0.12093    -0.27655    -1.54616
