 13
no_name:-382.079349658163
H     -5.24715     2.48209    -1.16841
C     -0.03355     0.12253     0.04233
C      4.19200    -2.70625     1.05789
C     -3.20227     2.23597    -0.70401
H      6.06362    -3.96302     1.50834
C      5.19048    -3.37474     1.29557
C     -2.14530     1.53309    -0.45652
C     -4.27836     2.95456    -0.96065
C     -1.10508     0.83783    -0.20814
C      2.07809    -1.28789     0.54657
H     -4.24503     4.05170    -0.97458
C      3.09074    -1.96746     0.78983
C      0.99314    -0.56232     0.28851
