 14
no_name:-382.722165761768
C      1.09928     1.98032    -0.45296
H      0.79232     0.97490    -2.40952
H      1.65302     2.87072    -0.75341
H     -1.64325    -3.10052    -1.80800
C      0.73586     1.67062     0.88377
H      0.96028     2.27241     1.76358
C      0.65018     0.98862    -1.32938
C     -1.32163    -2.36839    -1.06526
C     -1.32218    -2.05780     0.25499
C      0.04167     0.46481     0.89300
C     -1.14839    -1.47559     1.44161
C     -0.66444    -1.18198    -0.86567
C     -0.57744    -0.39648     1.79538
C     -0.02827    -0.01143    -0.58682
