 10
no_name:-230.500580193819
C     -0.78994    -0.61575     0.78068
H      1.36421    -0.25965     1.30917
H     -1.42870    -1.42784     0.41504
C     -0.12240     0.22500    -0.25310
C     -0.19271     1.11350    -1.17896
H      1.09787    -1.59236     0.05396
C     -0.26107     2.01937    -2.11460
C      0.69506    -0.71272     0.56883
H     -1.16291    -0.09500     1.67002
C     -0.34794     2.91219    -3.03604
