  9
no_name:-155.09813145849
H      0.92894    -2.94039     0.56132
C      0.11784    -0.84566     0.41173
C      0.14126     0.39214    -0.36846
C     -0.56862     1.48771    -0.05576
C      0.80195    -1.94499     0.13593
H     -0.52130     2.39228    -0.66705
H     -1.21957     1.51307     0.82447
H      0.78528     0.39303    -1.25462
H     -0.53382    -0.84131     1.30535
