  9
no_name:-267.133396665319
C      0.14641     1.09781     0.42221
C     -0.19866    -0.79358    -0.93511
H     -0.24652    -1.42672    -1.82381
C      0.10056    -1.26452     0.39541
C     -0.17777     0.64459    -0.96931
C      0.30131    -0.09352     1.21378
H      0.69674    -0.10543     2.23180
C     -0.69377     1.88091    -0.44428
C      1.23332     0.17625    -0.33774
