 14
no_name:-382.678132156453
H      0.14404     2.56047     0.33604
C     -0.11783     1.50822     0.48197
C      0.25245     0.58859    -0.51098
C     -1.24546    -0.02553     2.08954
C     -0.74599    -1.62625     0.63328
C     -0.09629    -0.81308    -0.31581
H      2.07701     1.55521    -3.59461
C     -1.36381    -1.41785     1.85555
H      0.00983    -2.98652    -1.22250
C      0.94858     0.97620    -1.68778
C      1.55105     1.27911    -2.70042
H     -1.83211    -2.16965     2.48600
C     -0.80244     1.02812     1.60637
C     -0.19009    -2.13980    -0.57228
