 14
no_name:-195.592705475531
H     -0.73435     1.72987     1.21128
C      0.71705    -0.91862     0.35714
C      1.75143    -2.00797     0.23965
H      1.32814    -2.98801     0.52189
C      0.30004    -0.13115    -0.61487
H     -2.01199     0.55470     0.81485
H     -0.09617     1.84869    -1.24730
C     -0.64570     0.97756    -0.84442
H      2.13944    -2.08200    -0.78685
C     -1.42192     1.39595     0.41820
H      2.60171    -1.82182     0.91911
H     -2.11309     2.22345     0.19289
H     -1.35922     0.68900    -1.63869
H      0.27681    -0.78106     1.36330
