 13
no_name:-307.20738666372
C      1.35701     1.12715    -1.06868
C      0.06270     0.29873     0.90757
C     -1.61203    -1.46041     0.37395
C     -0.68691    -0.79782     1.25814
H     -0.57217    -1.19785     2.27089
H      3.45762     1.33563    -1.94102
C     -1.61743    -0.80151    -0.87265
H     -2.19061    -2.33464     0.67193
C     -0.95742     0.17386    -1.25405
H      0.75770     0.74206     1.62602
C      0.01554     0.99339    -0.48073
C      2.47179     1.23919    -1.52628
H     -0.37911     2.02312    -0.33856
