 13
no_name:-269.778735213701
C     -0.69553     0.28218    -0.68180
H      1.34674    -1.34336    -0.39337
H     -0.53318     0.21386     1.54298
H      2.10916     0.78575     1.73872
C     -1.92618     0.56593    -1.30010
H      3.25097     0.00601     0.61899
H      2.44946    -0.96464     1.87962
C     -0.22923    -0.20960     0.57207
C     -2.99502     0.77804    -1.83646
H     -3.93785     0.97061    -2.31390
C      1.18156    -0.43903     0.20572
C      0.62339     0.68347    -0.73487
C      2.30785    -0.13475     1.16869
