 15
no_name:-271.086606124023
C      0.00218     0.33707     0.23877
H     -0.89031    -2.54422    -0.87840
C      0.31351     1.39405     1.26624
H      1.35564     1.74144     1.17410
H     -0.34280     2.27128     1.14400
C     -0.23218    -0.56272    -1.85094
C     -0.56458    -1.51291    -0.72246
H      0.43093     1.52659    -1.70884
C      0.11912     0.58601    -1.25409
H     -1.94573    -0.79744     1.13716
H     -0.27902    -0.79699    -2.91416
H      0.88912    -1.70347     1.20805
C      0.28195    -1.14661     0.49210
H      0.17567     1.00961     2.28915
C     -1.09669    -0.70600     0.45738
