 11
no_name:-305.940843909841
C      1.60002     0.43357     1.27365
C     -2.20756     0.69086    -1.94036
C      1.85510     1.61866     1.46543
C     -1.50343    -0.11991    -1.36655
C      0.31010    -1.33554     0.14571
H      2.07474     2.65763     1.63018
C      1.30848    -0.90467     1.05881
C     -0.69013    -1.04763    -0.72239
H     -2.83254     1.40346    -2.44654
C     -0.34027    -2.42097    -0.50466
H      1.86642    -1.67117     1.60925
