 12
no_name:-194.352987774625
H     -0.11657     2.43376     1.67972
H     -0.82782    -2.15735    -1.24614
H      0.17019    -1.26108     0.83681
H      0.13237     1.52520    -0.57911
H     -0.88737    -0.49391    -2.02622
C      0.23990    -0.59186    -0.03215
C      0.10638     0.84727     0.28415
C     -0.35944    -1.16873    -1.33808
H      1.83381    -0.48895    -1.74114
H     -0.05358     0.71270     2.39981
C     -0.02742     1.35693     1.51474
C      1.08412    -1.03353    -1.16277
