 15
no_name:-308.450454955291
C      1.02561     1.41312    -0.49791
H     -2.31209    -0.85607    -0.73191
H      1.61661    -3.30996     1.13310
C     -1.41254    -0.51135    -0.20692
C     -0.28982     1.76397    -0.09397
C     -0.54161    -1.47032     0.19459
C     -1.35549     0.92857     0.01393
H      3.15129     0.90017    -1.17450
C      0.62756    -1.28507     1.05106
H     -0.75790    -2.50236    -0.10119
H     -2.31915     1.40651     0.22840
H     -0.45813     2.82960     0.10125
C      2.15634     1.15303    -0.86060
H      0.78867    -0.28258     1.46527
C      1.47964    -2.25190     1.36404
