 15
no_name:-308.541455586374
H      0.50938     0.08918     2.18964
H     -1.26479     0.94617    -2.52759
C      0.83375     1.45863    -0.57486
C      1.69925     2.31510    -0.46914
H     -1.75324    -2.29096     0.40943
H     -2.71816    -1.23050    -1.89716
C     -1.36222    -1.40330    -0.08798
H      2.45530     3.07356    -0.38909
C     -0.31222    -0.64099     0.33863
H      1.60941    -0.93378     1.26239
C      0.54919    -0.80505     1.54315
H      0.24139    -1.67671     2.13888
C     -0.14602     0.46172    -0.66142
C     -1.12894     0.30040    -1.66234
C     -1.87798    -0.83236    -1.32547
