 13
no_name:-307.142618083465
C      0.58481    -0.61136     0.37174
C      0.02241     0.16091    -0.78238
H      0.13597    -1.20602    -2.41621
C     -0.97226     2.24978     0.66637
H     -1.85882     2.87217     0.70743
H      0.78429    -2.59053    -0.35739
H     -0.51613     0.50351    -2.82292
C     -0.19846     1.46832    -0.18565
C      0.69859     0.52099     1.30830
H      1.32483    -2.30769     1.41347
C     -0.27057     1.39277     1.48046
C      0.92386    -1.90526     0.48128
C     -0.13549    -0.20265    -2.08194
