 12
no_name:-381.347531809222
C      0.78038    -0.38470     1.27303
C     -0.07613    -1.04155    -1.04638
H     -0.33510     3.26965     0.12991
C     -0.03636    -2.01206    -1.98649
C      0.00235    -2.93072    -2.87783
H     -0.03893     0.28399     3.23048
C      0.22686     0.54698     2.20177
C     -1.05033     1.26080    -0.50296
C      0.70868    -0.92309     0.15992
C     -0.57113     2.24033     0.41784
C     -0.91200     0.13525    -1.00100
C     -0.18138     1.63809     1.54591
