 14
no_name:-307.882049478779
C      0.51874    -0.74880     0.22963
H     -0.53922     1.78175    -1.94541
C      0.39097     0.28263    -0.81675
H     -4.00696     1.27519     0.48273
H     -1.54573    -1.01936     0.70746
H      4.02724    -1.81088     0.89888
C      1.86663    -1.17261     0.50223
H     -0.32487    -2.06801     1.66555
C     -1.93625     1.11735    -0.48258
C     -3.03850     1.20610     0.02402
C      3.01484    -1.50812     0.70819
C     -0.66678     1.07433    -1.11775
H      1.29354     0.43240    -1.41526
C     -0.51385    -1.30658     0.90627
