 13
no_name:-232.429785857303
C      1.28163     0.75336    -1.74487
C      1.53972     0.94199    -2.92682
H     -2.45313    -1.10963     1.09429
H     -0.95363    -0.31959    -0.67570
C      0.99418     0.54080    -0.39451
C     -0.49886    -0.24330     1.40167
H      1.76980     1.11197    -3.96145
C     -0.20959    -0.03078     0.07645
H      1.75340     0.83772     0.33931
C     -1.76567    -0.84546     1.91275
H     -1.56763    -1.75980     2.50208
H      0.25181     0.04903     2.14719
H     -2.29444    -0.15303     2.59367
