 10
no_name:-267.872843612342
C      0.57434     2.32152    -1.41108
C      0.19689     1.26907    -0.68511
C     -0.55826    -0.84125     0.76242
H      0.76383    -2.89295     0.34505
C     -0.15578     0.28695    -0.00929
H     -1.64394    -1.01889     0.79701
H      0.54080    -1.02402     2.97418
C      0.93903     3.33700    -2.11691
C      0.38216    -2.04654     0.90880
C      0.29370    -1.30291     1.95382
