  9
no_name:-304.665464413917
C      0.36880     0.80661     1.21938
C     -0.61488    -0.78891    -0.85129
C      1.61074     0.37411     0.86783
C     -1.57801    -0.06574    -0.10931
H     -2.65794    -0.06022    -0.25407
C     -0.83669     0.64930     0.86045
C      0.64095    -0.95841    -0.88124
C      1.75120    -0.53653    -0.21600
C      2.89803    -0.08622     0.48790
