 12
no_name:-306.604402236331
C      0.79927     1.44840    -0.30637
H      0.02461     0.87210    -2.27838
H      1.37009     2.34930    -0.53719
H     -1.44370    -2.14747    -1.42092
C      0.60442     0.93037     1.08303
H      1.10294     1.32803     1.96774
C      0.10395     0.69467    -1.20654
C     -1.14539    -1.59868    -0.52710
C     -1.05717    -2.10233     0.85664
C     -0.26629    -0.10616     1.00973
C     -0.92755    -1.21441     1.75876
C     -0.56483    -0.35266    -0.42831
