 11
no_name:-268.514308414644
C      0.49640     0.36214     0.77553
C     -0.79761     0.56659     0.11901
H     -1.83477    -0.97759    -0.89185
C      1.64358    -0.22992     0.88939
C     -1.64343     0.10336    -0.99285
C      2.79493    -0.83374     0.99372
C      3.93190    -1.43367     1.09127
H     -2.60024     0.64381    -1.01871
C     -0.53186     1.31963     1.16037
H     -1.11458     0.24860    -1.94929
H     -0.79625     2.10020     1.86999
