 11
no_name:-231.110486145018
C     -0.51759    -0.78196    -0.96247
H      0.21995    -0.87316    -1.76178
H     -1.18473     1.49649    -0.72634
H      3.02203     1.30949     1.23594
H     -0.66346    -0.89677     1.27632
C      1.01543     0.33033     0.74700
H     -2.83013    -1.29905    -0.74356
C      2.07891     0.85177     1.00327
C     -1.24772     0.44953    -0.42449
C     -0.25709    -0.29485     0.45006
C     -1.96756    -0.67530    -1.00060
