 13
no_name:-344.553379402522
H     -2.20268    -1.73249     0.13616
C      1.14909    -0.67263     0.87782
H      2.16849     2.38104     1.76926
H     -2.21954     0.56999    -1.24269
H     -0.27285    -1.21827    -2.07122
C      1.72059     1.60564     1.14121
C     -1.37143    -1.02889     0.05962
C      0.09043    -1.15728     0.25836
C     -0.44206    -0.79300    -1.08354
C      1.97453     0.24524     1.25671
C     -1.34353     0.34079    -0.62269
C     -0.47197     1.41984    -0.15466
C      0.60333     1.83124     0.29519
