 19
no_name:-385.78575143192
C      1.34367    -1.53378    -0.71252
H      3.47103    -1.03477    -0.11047
H     -1.93191     0.46297     1.29623
C     -1.14140    -1.18276    -1.07278
H     -1.95387     2.21063     1.62998
C      0.16193    -0.78746    -0.66313
C      1.91654     0.51095     0.16026
C      0.49841     0.50945    -0.11793
H     -2.25707    -3.03197    -2.00411
C     -2.03262    -2.05110    -1.58242
C      2.43211    -0.71555    -0.19445
C     -0.46244     1.61068     0.15853
H      1.43462    -2.55667    -1.08040
H      2.46453     1.35463     0.57983
H     -1.16059     1.70065    -0.69013
H      0.08592     2.56133     0.25831
C     -1.29653     1.35016     1.43101
H     -0.64996     1.19696     2.30930
C     -2.52116    -0.79814    -1.18745
