 14
no_name:-233.045609957682
C     -0.49144    -0.35145    -0.40591
H      1.84817     3.69633    -0.67302
H     -2.04189    -1.86236    -0.32468
C      0.60462     0.34720     0.38776
H     -2.39089    -0.40563     0.64140
C      1.08991     1.64152    -0.01656
H      1.49791    -0.74033    -1.35786
H     -1.19992    -1.59691     1.21989
H      0.57371     0.19008     1.47261
H      1.12510    -1.81224     0.09410
C      1.49040     2.73103    -0.36925
H     -0.81335     0.19421    -1.29938
C     -1.58931    -1.09133     0.32106
C      0.90774    -0.88822    -0.45016
