 18
no_name:-310.383929895336
C      1.31809     0.20126     2.31024
H     -0.40575    -1.60678    -2.06448
H     -2.29520    -0.53659     0.10477
C      2.25167     0.80272     2.80613
H      1.45952     0.18428    -0.81743
C     -1.35492    -1.04026    -0.19012
H      3.08133     1.32712     3.24058
C     -0.18691    -0.32814     0.46091
H     -1.25917     1.32036    -1.67323
C     -1.11870    -0.84730    -1.69872
C      0.21812    -0.49623     1.73640
H     -0.31319    -1.20512     2.38249
C      0.46339     0.58718    -0.55740
H      0.04225     0.73607    -2.72925
H     -2.03773    -0.94156    -2.29702
H      0.63813     1.59832    -0.15732
C     -0.47721     0.54811    -1.77743
H     -1.44508    -2.09211     0.12294
