 12
no_name:-306.605080635387
H      2.57884     2.10169     0.95032
H     -2.38704    -2.80059     0.76790
C     -0.54932     1.42536    -2.29618
H     -0.70477     1.97189    -3.20651
C     -0.37539     0.80752    -1.26464
C     -1.02293    -1.03275     0.26862
C      1.57778     0.28014     2.00258
C     -0.17278     0.07609    -0.04927
C      0.82327     0.43591     0.80094
C     -1.74748    -1.97150     0.53301
H      1.74856    -0.25962     2.93167
C      1.92358     1.26351     1.17770
