  8
no_name:-191.794638678772
H      2.10894    -0.01960     0.34187
C      0.21399     0.50972    -0.97694
C     -0.97929     0.34608    -0.11710
H     -0.05578    -1.90995    -0.38207
C      1.05179     0.19856     0.20244
H     -2.04832     0.28216    -0.31131
C     -0.13777     0.12431     1.08018
C     -0.01091    -0.84713    -0.17425
