 10
no_name:-342.717801603595
C     -1.38313     3.37719    -1.06724
C     -0.85552     2.16987    -0.70779
C      1.14564    -2.40397     0.65159
H      2.03131    -4.43426     1.25701
C      1.61664    -3.48392     0.97328
C      0.14484    -0.11271    -0.03044
C     -2.35355     4.38486    -0.93562
C      0.62204    -1.20320     0.29381
C     -0.37469     1.07751    -0.38485
C     -1.36387     4.54532    -1.84792
