 17
no_name:-347.148482005891
C     -0.13873    -0.45137    -0.01940
C      0.28749     1.87771    -0.63448
H      2.27323     6.29504     0.01419
C     -0.74569    -1.77292    -0.22736
H     -1.04626    -2.14928     1.96510
C      0.78096     2.98739    -0.47425
H     -0.06616    -3.89913    -0.44811
C      1.34073     4.22217    -0.28971
C      1.83410     5.32616    -0.13011
C     -1.19382    -2.59113     0.97523
H     -2.11976    -3.16362     0.87189
H      0.99730    -2.88072     0.65130
C     -0.30138     0.60814    -0.84431
H     -1.35871    -1.86222    -1.13000
C      0.01048    -3.02226     0.20075
H      0.48703    -0.33146     0.87328
H     -0.92667     0.49709    -1.73981
