 15
no_name:-271.067622438373
C     -0.64106     0.63640    -0.05832
C     -1.11296    -1.85418    -0.04642
H      0.29103    -0.91992     1.27873
H     -2.51221    -3.56548    -0.62974
H     -1.65648     0.84001    -0.40647
H      0.16517     2.67006     0.21344
H      0.37383     1.64992     1.66820
C     -1.85660    -2.75921    -0.36087
C      0.50311    -0.04803    -0.78881
H      2.30482     0.49614     0.43477
C      1.50725     0.93820    -0.18547
C     -0.23224    -0.77498     0.32267
C      0.33045     1.64190     0.56628
H      1.96989     1.59051    -0.94009
H      0.52386    -0.46482    -1.79853
