 11
no_name:-193.739828889912
H      0.09130     2.53226     1.33670
H     -1.61958     0.35698    -1.21265
C     -0.95229    -0.30602    -0.64976
H      1.12585    -1.16318    -0.96066
C      0.55924    -0.22480    -0.95958
H      0.51729    -0.32283     2.65771
H      0.87994     0.49160    -1.72478
H     -1.37370    -1.29773    -0.44834
C      0.00436     0.28376     0.31930
C      0.30254     0.27413     1.77379
C      0.12842     1.45020     1.22925
