 11
no_name:-193.796201788076
H      3.27416     1.28601     1.18958
H     -2.09456     0.09955     0.07510
C      0.05779    -0.07780    -0.09701
C      0.01479    -1.05488    -1.02274
H     -0.94239    -1.43953    -1.38520
H     -1.20146     1.63316     0.30541
H      0.92857    -1.48837    -1.43495
C     -1.18324     0.54750     0.49724
C      1.31233     0.42952     0.38113
H     -1.19894     0.41591     1.59185
C      2.35083     0.88708     0.81396
