  8
no_name:-191.822788423292
H      1.75981    -0.33705     2.48217
C     -0.37504     0.01162    -0.28133
C      0.78748     0.27325     0.54472
C     -1.59684    -0.70675    -0.45896
C      1.00170    -0.34198     1.69761
C     -1.08945     0.23414    -1.38804
H     -1.22818     0.74832    -2.34027
H      1.51448     1.01903     0.17855
