 11
no_name:-305.878486952233
C     -0.41464    -0.30525    -0.22259
H      3.67317    -1.50409    -1.97727
C     -0.99489     0.65385     0.42824
C      1.49129    -1.36417    -1.30164
H     -0.65865     1.32989     2.59360
C     -1.35585     1.19366     1.75254
C     -2.48894     2.07010     1.45557
C      2.64870    -1.44368    -1.66008
C      0.12764    -1.31064    -0.89055
C     -1.73278     1.92060     0.34128
H     -0.50317    -2.17398    -1.15233
