  8
no_name:-191.851053623994
C      1.33890     0.05376    -1.24027
H      2.27915     0.21556    -0.68231
C     -0.69084    -0.15617     0.50461
C     -2.60383    -0.34985     2.29175
C     -1.70359    -0.26370     1.37237
H      1.20748     0.90892    -1.92433
C      0.24158    -0.05945    -0.30394
H      1.46318    -0.86758    -1.83410
