 16
no_name:-346.472185909766
H      0.95736     1.32339     3.51414
C     -1.41531    -1.57546    -1.72730
C      0.39996    -0.34166    -0.58572
C     -1.92451    -2.38710    -2.63599
C      0.79573     0.48561     0.37245
C     -2.38757    -3.15554    -3.49923
C      1.18058     1.28541     1.30893
H      2.34358     3.17110     1.36369
H     -2.78895    -3.81472    -4.24514
C     -0.98918    -0.74846    -0.78163
H      2.69660     1.16890     2.92049
H     -1.71938    -0.32290    -0.07517
C      1.66937     1.47755     2.69535
H      0.60366     3.32496     1.95568
H      1.14379    -0.75224    -1.27947
C      1.45973     2.66631     1.77002
