  9
no_name:-304.465207568689
H     -1.05383     1.04008     2.20329
C     -0.83424     0.66053     1.20893
C     -0.67174     1.18302    -0.02055
C     -0.62222    -0.69928     0.70667
C      0.40150    -1.44945    -0.13066
C     -0.39192     0.04556    -0.90182
C      1.00835    -0.42532    -1.07317
C      2.08084    -0.15398    -1.77940
C     -1.03365    -1.28885    -0.55794
