 12
no_name:-231.813210308116
C     -0.03406    -0.37555     0.74064
H     -1.63722    -1.58535    -0.57739
H      2.16422    -1.25047     0.32536
H      2.18462     1.39798    -0.74037
H     -0.26996    -0.55640     1.80071
C     -1.09792     0.57921    -0.81216
H     -1.61649     1.06253    -1.64463
C      1.43683     0.80282    -0.20931
C      1.42721    -0.44348     0.29237
C     -1.10766    -0.66691    -0.30991
C     -0.02297     1.08343     0.15289
H     -0.25103     1.95156     0.79031
