 10
no_name:-305.284686371105
H      1.91991     0.85771     0.91262
C      1.01789     0.25194     1.10952
H      1.10214    -0.09762     2.15035
C      0.90897    -0.86886     0.12138
C      0.34436    -1.12287    -0.96081
C     -0.68217    -1.13571    -1.87560
C     -1.05295     1.25311    -0.04947
C     -1.89416     0.91927    -1.08529
C     -1.26448     0.04288    -1.83811
C     -0.22213     1.05412     0.85870
