 16
no_name:-309.14101220182
H      1.66127    -2.25553     4.50491
C      1.53506    -1.52021     2.51523
H      0.00979    -1.53028     4.00498
C      0.00334     0.48066    -1.75314
H     -2.32837     2.05665    -1.82477
H      1.03063     0.15960    -1.95397
H     -2.28378     2.28888    -3.67249
H      2.57544    -1.78969     2.29182
H     -0.23313     1.00863    -3.84067
C     -0.50643     0.23015    -0.51944
C     -0.70055     1.12905    -2.85639
C      1.04018    -1.78226     3.74050
C      0.21451    -0.38118     0.53093
C     -1.82884     1.85703    -2.77765
C      0.81012    -0.90744     1.46010
H     -1.54745     0.50042    -0.30321
