 14
no_name:-382.716209662033
H      2.62192    -0.78172     2.58467
H     -2.59066    -0.31704     2.66055
C     -1.43515     0.35366    -1.69949
H     -2.52144     0.44849    -1.67275
C      1.47753     0.09256    -1.74150
C     -1.41204    -0.08023     0.71454
C      2.07855    -0.57168     1.68262
C     -0.69702     0.07325    -0.51251
C      1.44708    -0.33712     0.67306
C     -2.04331    -0.20432     1.74363
H      2.56370    -0.00727    -1.74624
C     -0.60150     0.47303    -2.79380
C      0.73566    -0.05528    -0.53315
C      0.64743     0.36105    -2.81183
