  9
no_name:-229.861890963892
C      0.73962    -0.16904     0.42040
H      1.30199    -0.51834     2.41402
H     -2.66242     1.22682    -2.26907
H      2.59281    -0.87779     1.10447
C     -0.12578     0.20226    -0.48024
C      1.58054    -0.53717     1.35339
C     -1.18843    -0.31394    -1.36686
C     -1.82366     0.88748    -1.66789
C     -0.59219     1.37805    -1.24289
