 15
no_name:-345.909953133972
C      1.32505     0.18750     1.70568
H      0.49541    -1.57311    -2.52738
C      0.86046    -0.76765    -0.60651
H      2.72559     0.36816     3.50781
C      0.11279    -0.94232    -1.72055
H     -2.04813    -1.07180    -2.12584
C      2.07414     0.27635     2.66024
C     -1.26363    -0.31039    -1.95025
C      0.47635     0.05657     0.57055
C     -0.74297     0.63225     0.40156
C     -1.57455     0.48815    -0.74215
H      1.83103    -1.26816    -0.55131
C     -2.01910     1.25121     0.25546
H     -2.79445     1.89237     0.67429
H     -1.28278     0.32941    -2.85375
