 14
no_name:-195.589039561904
C      0.43977    -0.00688    -0.27445
H      2.18921    -1.29748     0.28418
H     -2.66895     1.17738    -1.39094
C     -1.04135    -0.15576    -0.57129
H     -1.51602    -0.68026     0.28923
H      0.57807    -1.86895     0.95417
H      1.74387     1.02845     1.23638
H      1.01311     0.44337    -1.09319
H     -1.18704    -0.84024    -1.42841
H      0.13499     0.43875     1.89620
C      0.89976     0.34291     1.11844
C      1.16317    -1.03353     0.55608
H     -1.39805     2.05055    -0.32260
C     -1.73352     1.13932    -0.82633
