 15
no_name:-308.496927318373
C     -0.75415    -0.60458    -0.21016
H     -2.68557     0.60747    -0.45227
H     -0.93347    -2.66405     0.68823
C     -1.60966     0.63706    -0.27662
H     -1.19704     2.77083    -0.07369
H      1.37290     2.01949     0.31328
C     -0.84744     1.73699    -0.07638
C      1.80091    -0.82265     0.20337
H      3.64212    -2.16925     0.40541
C      0.54114     1.33649     0.13448
H     -0.72223    -1.08404    -1.20923
C      0.64323    -0.02175     0.06369
C      2.77474    -1.54444     0.30693
H     -1.52789    -1.26292     1.78903
C     -1.18840    -1.60901     0.80961
