 13
no_name:-232.351991361595
C     -0.05280    -0.86127    -0.26397
C     -1.25044    -0.24050     0.44624
H      1.27652     1.41432    -2.61996
H      1.68668     2.11891     0.43843
H     -1.19355     0.83003     0.66807
C      1.27401     1.07550    -1.58544
H     -0.28047    -1.66041    -0.97831
C      1.44129     1.36942    -0.31177
C     -0.32924    -1.16865     1.18799
H     -0.69074    -2.16846     1.44556
H     -2.25126    -0.59275     0.17883
H      0.35144    -0.73330     1.92646
C      1.11216    -0.02565    -0.63364
