 13
no_name:-307.202401716279
C      0.30304     0.90817    -0.22803
C      0.01974     1.55691    -2.76097
H     -0.23110     2.09884    -4.99835
H     -0.39425    -2.83696     2.81720
C     -0.11547     1.84991    -3.96157
C      0.16654     1.25493    -1.47849
H      1.06715     1.85295     1.88377
H     -0.58073    -2.03685     0.49279
C      0.18824    -0.05388     0.86838
H      0.29026    -1.17937     3.34370
C     -0.19388    -1.38147     1.27889
C     -0.09389    -1.82180     2.54557
C      0.67132     1.15538     1.14613
