 14
no_name:-233.058452453124
H      0.25638     2.09322     2.99663
H      0.50782    -1.01911    -2.86907
H      1.58776    -2.01636    -0.76506
C     -0.14626    -1.26592    -2.02352
C      0.15127     0.85085     1.26850
H      0.63698     0.00145     1.76355
H     -1.13395    -1.64005    -2.32053
H     -0.72166     1.47915    -0.63896
C     -0.02410    -0.49544    -0.78519
H     -0.53315     2.85445     1.48639
C     -0.23346     0.64403    -0.12157
C     -0.05130     1.98891     1.95317
H     -0.05415    -2.63745    -0.21680
C      0.50126    -1.86478    -0.76272
