 12
no_name:-306.590585605644
H      1.73281    -3.28786    -2.33644
C      1.16355    -2.41434    -2.70079
C      0.76737    -1.52044    -1.63447
C     -1.06901     2.50595     3.06596
C      0.41368    -0.74824    -0.73019
H     -1.72172     3.95667     4.74149
C     -0.32886     0.87504     1.16998
C     -1.41807     3.28056     3.96494
H      1.75002    -1.90617    -3.48677
C     -0.69150     1.67173     2.10126
H      0.24962    -2.80542    -3.18490
C      0.03635     0.07572     0.23690
