  9
no_name:-267.256466243913
C      0.61021     0.42807     0.72628
H     -1.79378    -1.67550    -2.53177
C     -0.17302     0.07545    -0.26324
C     -0.93184    -0.27011    -1.22316
C      1.55350     0.04070     1.74062
C      2.06570     1.08129     2.56896
C      1.13157     1.47325     1.56615
C     -1.71930    -0.62829    -2.21933
H     -2.31933     0.11192    -2.75951
