 14
no_name:-195.633877411647
H      1.61532    -0.14468     2.44446
H     -0.25665     0.76988    -1.75335
C      0.14957    -0.03612     0.18463
C      1.27311     0.72081     0.49569
C      2.04440     0.61347     1.77019
H      2.06867     1.57579     2.31583
H     -2.03609    -1.46583    -0.48389
C     -0.58255     0.04791    -0.99392
H     -1.64205    -1.38277    -2.22159
C     -1.78755    -0.77713    -1.30696
H     -0.18953    -0.76417     0.93577
H      1.62368     1.45203    -0.24367
H     -2.67614    -0.14675    -1.50016
H      3.10162     0.34303     1.58695
