  9
no_name:-155.086260453546
C     -0.20430    -0.77372    -0.53878
H      0.83973     1.03980    -0.74209
H     -0.02450     2.02630     1.53742
H     -0.90227     1.20308    -0.72906
H     -0.41079    -3.00526    -0.98281
C     -0.31432    -1.95696    -0.77216
C     -0.07303     0.65294    -0.23822
H      0.05292     0.19445     1.97439
C     -0.03322     0.98013     1.22195
