 18
no_name:-347.763616969405
H     -1.97395     0.39664    -2.34829
C      0.59134     0.17611     1.28182
H      1.42803    -0.80492    -0.58743
C     -0.53876     0.18878    -0.73772
C     -1.34709     0.89222     0.27362
C     -0.70049     0.89060     1.46370
H      1.65414    -1.65962     2.15655
C     -0.96837     0.01989    -2.12600
H     -2.32197     1.33904     0.06826
C      0.61046    -0.24609    -0.13171
H     -1.02416     1.33421     2.40500
H      0.74934    -0.92250    -2.97221
H     -0.67769    -0.61914    -4.13180
H      2.82512     0.76920     1.63047
H      0.59714    -0.72693     3.34195
C      1.20344    -0.69556     2.42781
C     -0.26300    -0.53574    -3.12422
C      1.83176     0.54387     2.02313
