 15
no_name:-233.627548959295
H     -2.07453     2.37516    -1.11013
C      0.12917    -1.24421     0.18273
C     -0.18896    -1.99912     1.23748
H     -0.35181    -3.07641     1.14156
C     -0.51455     0.98925    -0.72229
C      0.39649     0.25363     0.23278
H     -0.37739     0.74636    -1.78492
H     -1.60847     2.14444     0.68235
H     -0.30086    -1.56572     2.23723
C     -1.44340     1.87884    -0.36739
H      2.60765     0.21066     0.65604
H      0.17899     0.59050     1.26343
H      0.23715    -1.70675    -0.80660
H      2.16838     0.81311    -1.06896
C      1.84585     0.50608    -0.07013
