 13
no_name:-269.851346805262
C     -0.18585    -0.75944     0.36525
H      1.81826     2.05926    -4.12037
C      0.86202    -0.28219    -0.27201
H     -2.57335     0.05080     2.74946
H     -2.37569    -1.54863     1.80658
H     -0.51498    -1.78309     0.13493
C     -2.02237    -0.53207     2.00753
H     -0.62343     0.99696     1.58500
C     -0.95808    -0.02315     1.36814
C      1.85848     0.91253    -2.14118
C      1.91571     0.20060    -0.90348
C      1.84133     1.52168    -3.19125
H      2.91277     0.05199    -0.46144
