  7
no_name:-228.445912710805
C     -0.41143     0.36541    -1.14806
C     -1.26145    -0.68972    -1.02217
H      1.08359    -0.08182     1.51000
C      0.46257     0.02651     0.61827
C     -0.73884    -0.78471     0.31801
C      0.65347     0.91662    -0.52525
C      0.60957    -0.94134    -0.71013
