 14
no_name:-233.056021515843
H      1.52029     1.05413     1.99762
H      1.16380    -1.63173    -2.10599
H      1.45653    -1.26752     0.95084
C      0.25146    -1.06365    -1.90124
C     -0.38275     0.23783     1.24989
H     -0.82085     0.02552     2.22786
H     -0.48999    -0.98976    -2.70221
H     -1.42487     1.21727    -0.49606
C      0.04527    -0.49400    -0.71432
H      1.01653     1.78306     0.38347
C     -1.14989     0.23043    -0.08425
C      0.92014     0.94866     1.08875
H     -2.04584    -0.40999    -0.06713
C      0.80775    -0.47287     0.57244
