 16
no_name:-346.462373635083
C      1.54081    -0.36778     0.04234
C     -0.87250     0.62888     0.82071
H      1.97459     1.24890    -1.37537
H      2.34950    -1.70292    -2.23402
H      1.54683    -1.46738     0.11859
H     -4.79908    -1.23406     2.35234
C      1.97332     0.15633    -1.27691
C     -3.16735     0.05114     1.39210
H      2.65469    -0.17438    -3.26131
C      2.34408    -0.61040    -2.30837
C      0.42167     0.36134     0.82558
C     -4.03728    -0.62744     1.90027
C     -2.17190     0.87214     0.78078
H      2.39516     0.84855     2.00650
H     -2.53052     1.76729     0.24739
C      1.69769     0.42372     1.28892
