 17
no_name:-309.728284158949
H      2.63541    -1.67387     0.90709
H      1.24982    -2.26593    -1.89603
C     -0.72716    -1.37013    -0.12670
C     -0.62155     0.87238     0.43409
H     -1.65688     2.17885     1.80287
H     -2.56930    -0.29676     0.35015
H      2.39363    -0.83600    -1.70083
H     -0.31163     2.95273     0.92359
H     -1.05794    -2.38645    -0.34113
C      0.66644     0.50365     0.19179
C     -1.12961     2.22249     0.83365
H     -1.85517     2.61001     0.09707
C     -1.48379    -0.30419     0.23019
C      0.69503    -0.93325    -0.16726
H      1.55277     1.13630     0.25696
C      1.68818    -1.52417    -1.21624
C      1.82434    -1.83280     0.19395
