 11
no_name:-268.503419067689
H      2.18662     1.59336     2.07421
H     -3.03491    -2.09447     0.62521
C      0.34056     0.96315    -2.24939
H      0.46596     1.35561    -3.24147
C      0.22418     0.52723    -1.12054
C     -1.15187    -0.81919     0.35069
C      1.98065     1.06053     1.12165
C      0.02748    -0.04418     0.16730
C      0.89304     0.20081     1.24477
C     -2.15334    -1.49369     0.49712
H      0.63201    -0.30453     2.19037
