 15
no_name:-345.8780315956
H     -0.90406     2.54413     1.30057
C      2.12668    -1.57069    -1.00374
H      2.25222    -3.04314    -2.83330
C      2.68850    -2.53424    -1.97829
C     -0.77338    -0.54814     1.07068
C      0.20792    -0.07954     0.06028
H     -2.01812     2.10039     0.01263
C     -1.19311     1.70469     0.63743
C      1.23066    -0.85275    -0.52178
H     -0.79661    -1.56783     1.45618
H     -2.40715     0.44250     2.12655
H      0.51806     1.86818    -0.89519
C     -1.58686     0.47277     1.40845
C     -0.04134     1.24467    -0.19740
C      3.59497    -2.18707    -1.10974
