 11
no_name:-156.367584126007
H      1.91055     0.71326     0.80116
H      2.42281     0.15504    -0.81482
C     -0.68182     0.18610     0.27881
H     -0.49495     1.00493     0.98701
H      0.26407    -1.28228    -0.95490
H     -2.82812     0.43798     0.43200
C     -2.00219    -0.11621    -0.01895
H     -2.25305    -0.92092    -0.71681
C      1.84718    -0.12369     0.08791
H      2.37854    -0.98739     0.53059
C      0.43200    -0.46180    -0.24551
