 13
no_name:-269.848188331241
H      1.20687     1.83120    -1.39844
H     -0.92480    -1.84707    -1.36239
H      1.38430     1.77537     1.47129
H     -2.91355    -0.39865     2.82216
H     -0.38078    -0.64297    -2.69125
C      0.15168    -0.15122    -0.70148
C      0.97063     1.10338     0.71733
C     -0.40985    -0.92184    -1.63414
C      0.26391    -0.25656     0.84874
H      0.94268    -1.07188     1.16128
C      0.87367     1.12808    -0.63151
C     -0.97424    -0.31906     1.61530
C     -1.99951    -0.36152     2.26023
