 16
no_name:-309.113307834608
C      1.37689    -0.01098     0.86964
H      1.36200     0.90595     1.47335
H      0.33422    -1.20935    -0.52044
H     -0.79835     1.45792     0.59915
H      4.42010    -2.11235     1.20035
H     -3.53661    -0.05308    -1.75207
H     -2.70038    -0.69780     0.90143
H     -1.46900     1.98918    -1.71102
C      0.32160    -0.29121     0.07959
H     -0.73111     0.46929    -2.30502
C     -0.89468     0.56374    -0.04105
C     -1.36100     0.90898    -1.51320
C     -2.24505    -0.14419     0.07549
C      2.53763    -0.82820     0.98551
C      3.53755    -1.50895     1.10279
C     -2.63164     0.15622    -1.17479
