 14
no_name:-307.871496730991
C     -0.34562    -0.37298     0.70875
H      1.53013     1.76958    -4.17512
C      0.67588    -0.14286    -0.07354
H     -2.79681    -0.83161     2.64408
H     -1.99772    -1.70683    -0.02240
H     -0.90752    -2.49909     1.17106
C     -1.94982    -0.67999     1.97262
H     -0.88063     1.28325     2.29351
C     -1.05053     0.31831     1.81162
C      1.62167     0.73611    -2.13578
C      1.70882     0.08240    -0.86841
C      1.57740     1.28395    -3.21884
H      2.71178    -0.23843    -0.54811
C     -1.35800    -1.54143     0.86053
