  9
no_name:-267.312327008175
C     -0.30721    -1.63090    -0.84157
H      0.56166    -3.71334    -1.23696
C      0.55791     2.43407     1.61371
C      0.15408    -2.73600    -1.05251
H      1.09197     3.09421     2.27273
C     -0.74352     0.83538     0.01213
C     -0.04603     1.68838     0.86689
C     -0.83809    -0.36329    -0.60476
C     -1.86739     0.59834    -0.83517
