 11
no_name:-268.566723762993
H     -2.34939     0.04257     2.56530
C     -1.45667    -0.03861     1.93973
C      0.59616     0.23898    -0.98112
H      3.86931    -0.60615    -1.84910
C     -1.48061     0.34789     0.65042
C      1.66973     0.19763    -1.85944
H     -0.54779    -0.43928     2.39657
C      2.93368    -0.14094    -2.16268
H     -2.40790     0.74721     0.22081
C     -0.35505     0.27905    -0.21327
C      2.20298     0.52192    -3.16332
