 16
no_name:-384.069887251858
C     -1.94197     0.78680     0.35555
C     -0.25938    -0.66327    -0.65861
C     -0.94013     1.42186     1.13172
H     -2.98321     1.10506     0.44945
C      2.14904    -0.41230     0.03370
C      0.37648     1.02996     1.02309
C     -1.60773    -0.22755    -0.51523
C      0.76529    -0.01386     0.13560
H     -1.21541     2.22570     1.81899
H     -2.38007    -0.71720    -1.11435
H      1.14882     1.51960     1.62217
H      2.91852     0.07835     0.63396
C      2.30659    -1.42545    -0.86979
C      0.07362    -1.72745    -1.57523
C      1.41463    -1.99200    -1.56217
H     -0.70082    -2.21477    -2.17190
