 12
no_name:-381.306172550006
C      1.67514     0.99115    -0.30561
C      0.58380     0.05544    -0.12126
H      3.80555     1.33424     0.60450
C      0.40619    -0.71491     1.09749
C     -2.00840    -0.67804     1.30375
C     -1.75678    -0.36100    -1.18056
C     -0.73168    -1.01472     1.56117
H     -2.20140    -0.73626    -2.10792
C     -0.45898    -0.01449    -0.99738
C      2.89197     1.43310     0.01729
C     -2.35148    -0.46157     0.09842
C      2.18192     2.14276    -0.98247
