 12
no_name:-306.599161153157
C     -0.24940    -1.35872     0.89033
C     -0.00226    -1.90618    -0.31889
H      0.41481    -1.44647    -2.40191
C     -0.31398    -0.04575     1.15698
H      0.06029    -2.96445    -0.57831
H     -0.30613     4.51396     0.91513
C     -0.09395     0.91853     0.02303
C     -0.17449     2.30147     0.34907
H     -0.51237     0.44669     2.11030
C      0.21533    -0.96815    -1.44083
C      0.15402     0.35264    -1.18988
C     -0.24157     3.47247     0.66133
