 12
no_name:-231.949588195665
C      1.33853     0.35409     0.19577
H     -1.12016     0.50955    -2.16652
C     -0.71000    -0.64126     1.02063
H      1.26480     1.14092    -1.81798
H     -1.26500    -1.14204     1.81828
C      0.70984     0.64015    -1.02029
C     -1.33869    -0.35520    -0.19544
H     -2.38497    -0.63265    -0.34842
C     -0.62886     0.28570    -1.21594
C      0.62869    -0.28681     1.21628
H      2.38481     0.63155     0.34872
H      1.12001    -0.51063     2.16686
