  8
no_name:-229.174711904891
H      2.29294    -0.93617    -1.58343
C      0.68667    -0.31933    -0.07561
H     -0.03291     0.82888     1.60647
C     -1.87061     0.11525     0.42232
C     -0.30462     0.04547     0.88410
C      1.54026    -0.64752    -0.87226
C     -2.29418     1.13604    -0.26523
C     -1.40239    -0.88464     1.25061
