 13
no_name:-157.578668965577
C      1.34156     0.48965    -0.38217
H      2.18976     0.07354     0.18735
H     -1.54538     0.48179    -1.28303
C     -1.21558     0.73437    -0.24980
H     -1.06702     1.82762    -0.23161
H      1.40968     1.59056    -0.34853
H     -0.96864    -1.58684     1.22025
H      1.50483     0.19981    -1.44492
H     -2.06131     0.48926     0.41479
H      0.80953    -1.75547     1.13306
C      0.02730    -0.00354     0.13218
C     -0.08562    -1.42567     0.57877
H     -0.19392    -2.12307    -0.28268
