 10
no_name:-267.897700322457
C     -1.06033    -0.30063    -0.84096
C     -1.93415    -0.97811    -1.58346
C      2.25491     1.15434     2.29046
C      1.40863     0.85418     1.47258
H     -2.96972    -1.09097    -1.25572
H     -1.62001    -1.45032    -2.51665
C      0.33517     0.13878    -0.81753
H      3.00082     1.43843     3.01004
C      0.43768     0.44516     0.54940
C     -0.95747     0.48239     0.39094
