 16
no_name:-309.15263327129
C      1.00953     0.25140     1.46537
C      0.93410    -1.19035     1.49689
H     -1.56969    -1.10841    -1.91370
H      1.72271     0.86117     2.02103
H     -0.19328    -2.69933     0.32923
H      1.04115     2.22492    -0.76981
H      0.67772     0.06948    -2.15967
C      0.10808     0.69327     0.52368
H      1.47377    -1.82000     2.20818
H     -0.75037     2.39543    -0.66572
C      0.09471     1.68885    -0.61763
C      0.09672    -1.66311     0.50216
C     -0.46948    -0.50066    -0.13642
C     -1.39216    -0.23154    -1.28331
H     -2.28403     0.38821    -1.12115
C     -0.08227     0.43544    -1.46713
