 19
no_name:-385.800764263895
C      1.01311    -0.16989     0.86434
H      0.57502    -2.22966     0.41149
H     -4.97076    -1.78356    -2.15565
H      1.75930    -1.99508     1.72933
C      2.08831     0.63964     1.02111
C      0.84108    -1.59466     1.27444
C     -2.84707    -0.96792    -1.72162
C     -3.98654    -1.40554    -1.95413
C      1.79982     1.96844     0.46500
C     -1.62555    -0.50843    -1.49071
C      0.54507     1.98436    -0.03598
H      0.02074    -1.70546     2.00578
H      2.50068     2.80571     0.47096
H      3.02974     0.35762     1.49777
C     -0.07823     0.61922     0.15286
H     -0.98364     0.67828     0.78345
C     -0.44359    -0.02387    -1.17608
H      0.03420     2.81463    -0.52396
H      0.38679    -0.08028    -1.89695
