  7
no_name:-228.464340819009
C     -0.75229     0.66597     0.31272
C     -0.71188    -0.62034    -0.49536
C      0.88140    -0.13937    -0.49405
C      0.43837    -1.28018     0.23226
C      0.50175     0.26806     0.91892
C     -0.30750     0.49004    -1.25301
H      1.08537     0.54857     1.79782
