 11
no_name:-343.192149842495
C     -0.26656     1.22978     0.14518
C     -1.35557    -0.61131    -0.65900
C     -0.21994    -1.46695    -0.55530
C      0.68632    -0.46480    -1.29429
C      0.62131    -1.36930     0.65047
C     -0.46436     0.45257    -1.07067
C      1.44567    -0.36632    -0.13720
H     -1.07522     1.74038     0.67263
C      0.17526    -0.38515     1.66699
C      0.83978     0.60956     0.81142
H     -2.26519    -0.57277    -0.05645
