 13
no_name:-195.033182226689
C      0.37485    -0.22890    -0.45381
H      1.30968    -1.63639    -1.78632
H     -1.05069    -1.88625     0.03706
H     -0.99684     0.20188     2.06191
H      2.42900    -0.45859    -1.04281
C     -0.65670    -0.86944     0.13009
H      0.91775     1.39151     0.98379
H     -2.07733     0.74294     0.74196
C      0.11796     1.07281     0.29254
H     -0.16409     1.93582    -0.33569
C      1.41342    -0.59098    -1.45664
C     -1.08198     0.32230     0.96788
H      1.34946     0.05930    -2.34739
