 13
no_name:-344.627152967652
C     -1.60920     1.08322     2.86377
H     -0.85280     0.48155    -1.63157
H      2.92911    -1.91207    -3.63800
H      1.51123    -0.93799    -0.23142
C     -2.03123     1.37498     3.96969
H     -2.40279     1.63418     4.94380
C      0.87695    -0.57028    -1.04352
C     -1.13749     0.75340     1.62450
C     -0.71363     0.45987     0.51320
C      1.24206    -0.83528    -2.40853
C     -0.25334     0.13630    -0.77874
C      2.03703    -1.35279    -3.35216
C      0.88720    -0.65341    -3.78308
