  8
no_name:-191.906619845485
C     -0.67858    -0.38645     0.05080
C      1.30564    -1.42475     1.40872
H     -0.54284     2.86262    -1.69909
H      2.11466    -1.85112     1.97162
C     -0.61597     0.84200    -0.60602
C      0.38177    -0.92893     0.77597
C     -0.57798     1.91937    -1.18703
H     -1.61416    -0.95762    -0.00548
