 10
no_name:-118.311145973363
C     -1.12036     0.49828     0.32288
C     -0.07245    -0.48031    -0.08382
H     -0.37868    -1.49789    -0.35015
H      2.01626    -0.86949    -0.48881
H      1.33118     0.46687    -1.43796
H     -0.73500     1.22423     1.06290
C      1.30248    -0.03144    -0.44349
H      1.68986     0.71207     0.27756
H     -2.00596     0.00604     0.75518
H     -1.47933     1.10553    -0.53752
