 12
no_name:-194.37114778056
H     -2.43200     2.43765    -1.17323
C      0.61145    -0.84444    -0.08519
C      1.58138    -1.73577     0.55929
H      1.22376    -2.78023     0.57769
C     -1.03217     0.89235    -0.74434
C     -0.12411     0.22527     0.18624
H     -1.09609     0.45723    -1.74794
H     -1.72322     2.43168     0.55387
H      1.77022    -1.42585     1.60782
C     -1.76644     1.97489    -0.44044
H      2.55005    -1.73307     0.02940
H     -0.05710     0.66346     1.20048
