 15
no_name:-345.89702456809
C     -1.10093     3.09479     2.00402
C      1.07064    -2.97029    -1.92339
H     -2.06077     4.61107     3.43208
C     -0.52453     2.19267     1.15334
C      0.28309    -0.84376    -0.54240
C     -1.60992     3.90039     2.76536
H     -1.63823    -1.95720    -0.29012
C     -0.00970     1.38181     0.39229
H      1.39137     0.84508    -1.14923
H     -0.37255    -2.32719     0.99642
C      0.45818    -2.13354    -1.08488
H      1.85819    -2.61808    -2.59598
C      0.60680     0.46228    -0.48463
H      0.80285    -4.02987    -1.96171
C     -0.57342    -1.94214    -0.01425
