 16
no_name:-309.193709339042
H      2.04312     2.68777     1.38709
H     -1.60887    -1.55370    -2.09152
C     -0.10875    -1.35967     0.91032
H      1.49561     2.27405    -0.34237
H      0.22059    -1.76253     1.86983
H      0.98964     0.70828     2.27165
H     -1.14342    -3.15892    -0.00694
C      0.88505     0.91996     1.20000
H     -1.23975     1.05855    -2.57893
C      0.12646    -0.08335     0.46951
C     -0.83847    -2.11647    -0.10827
C      1.49309     2.01982     0.71942
C     -0.51892     0.02443    -0.87199
C     -1.07050    -1.30869    -1.17605
H     -0.36104     2.11023    -1.31187
C     -0.70519     1.12399    -1.62664
