 14
no_name:-307.893243870746
C     -0.11287    -0.62328    -0.60749
C     -1.44763    -0.87675    -0.66846
C      1.65140     1.83623     2.08927
C      1.03434     0.96967     1.14941
H      3.67437     1.61300     1.45257
H      0.98183     2.32741     2.80674
C      0.48673     0.23894     0.33702
H      3.38265     2.76332     2.90005
H     -2.11579    -0.39076     0.05166
H     -3.05099    -3.13238    -3.13590
H      0.55059    -1.11201    -1.33067
C     -2.04269    -1.74437    -1.61910
C     -2.57974    -2.48356    -2.42175
C      2.97445     2.08245     2.14900
