 16
no_name:-234.310190813266
C     -0.56399    -0.38134     1.37463
C     -0.22157     0.77132     0.77222
H     -2.31681    -1.06791     2.43168
H     -0.85166    -1.02208     3.41889
H      0.07718    -0.92151    -1.37519
C     -1.39351    -0.48918     2.61689
H     -1.68578     0.50145     2.99928
H      2.01671     1.13668    -2.69923
C      1.48797     0.17063    -2.68795
H      0.87119     0.10481    -3.60232
C      0.65492     0.00856    -1.45399
H      2.24410    -0.63156    -2.76798
H      1.09864     1.86137    -0.57761
H     -0.53492     1.71149     1.24529
H     -0.21033    -1.32606     0.94156
C      0.55945     0.91175    -0.46211
