  9
no_name:-267.206137782915
C     -0.31862    -0.30128     2.52937
H      0.42765     0.70436    -3.14859
C     -0.16516    -0.09110     1.34853
C      0.01759     0.15358    -0.03782
H     -0.45911    -0.48443     3.57933
C      0.28792     0.51689    -2.08922
C     -0.73085    -0.17990    -1.27971
C      1.06395    -0.17630    -1.04242
C      0.12778     1.36623    -0.89269
