 13
no_name:-307.230604272319
C     -2.50649    -0.53850    -1.93892
H     -4.25633    -0.91568    -3.37172
C     -0.52784    -0.11454    -0.31881
H      2.54277     0.59469    -0.49745
C     -1.45908    -0.31661    -1.08633
H     -0.02564    -0.06932     2.79568
C     -3.43414    -0.74057    -2.70364
H      2.44940     1.43192     2.31295
C      2.15739     0.45375     1.88874
C      0.55163     0.11322     0.56770
C      1.91619     0.43054     0.37930
H      2.85185    -0.31394     2.27643
C      0.67062     0.10976     1.97629
