 15
no_name:-308.474819657423
C     -0.78052     0.21812     1.58864
C      1.41861     0.53932    -1.08971
C     -0.63015    -0.32239     0.17653
H      1.38109     0.75023     1.99073
C     -1.38615    -1.20008    -0.58948
H     -1.68394     0.82834     1.75766
H     -2.64830    -2.65927    -1.83866
H      3.11890     0.00664    -2.20986
C      0.57788     0.41838    -0.06132
C      2.24879     0.66740    -2.09099
H      0.41572     2.12479     1.36346
C     -2.06175    -1.97919    -1.25040
C      0.53418     1.03065     1.34603
H     -0.72232    -0.54213     2.38595
H      2.11012     1.43707    -2.86311
