 13
no_name:-307.247344965519
C     -0.47130     0.07251     0.35868
H     -2.29663    -1.07991    -0.26657
C     -1.71191    -0.17893    -0.52285
H      2.51790    -0.11766    -1.51755
H     -0.70802     0.48850     2.51513
H     -0.78404    -0.55933    -2.71848
H     -2.40377     0.67660    -0.61610
C      1.82810     0.00656    -0.68131
C     -0.04939     0.35684     1.65442
C      0.40438    -0.09916    -0.77263
C      1.35659     0.43890     1.63244
C      2.12465     0.29002     0.64700
C     -0.69073    -0.34187    -1.65422
