 15
no_name:-345.932221042668
C      0.20773     1.99856     0.89513
C     -0.82218     2.01447    -0.15823
C     -1.91788    -0.22179    -1.28517
C      1.17425    -1.38444     0.60702
H      1.79481    -2.25388     0.85325
C     -0.89140    -0.61167    -0.51265
C     -0.03846    -1.63120     0.03249
C     -1.16801     0.79978    -0.64034
C      1.14394     1.06826     0.88236
H      2.88523    -0.04726     0.49999
C      1.80755    -0.06282     0.72154
H     -2.74286    -0.49675    -1.94078
H     -1.38386     2.92117    -0.38973
H     -0.36303    -2.66847    -0.09473
H      0.08632     2.65818     1.76500
