 13
no_name:-232.421016052554
H     -0.11233    -1.54273    -0.81271
C     -0.63357     0.53688    -0.39932
H      1.86516    -1.27450     0.49826
H     -2.29089     0.16153    -1.67619
H     -1.11649    -1.31731     0.62765
H      0.85580    -1.18517     1.94650
C      0.99769    -0.75273     0.94067
H     -1.78612     1.95262    -1.48047
C     -0.27866    -0.88692     0.05607
C      1.25087     0.74608     1.01409
H      2.06483     1.19313     1.58887
C     -1.62227     0.90222    -1.22940
C      0.34233     1.37754     0.27056
