  7
no_name:-191.232441352161
H      2.81753    -0.01394     0.55216
C      0.57387     0.06775     0.08978
C     -1.79385    -0.08956     0.66565
C     -0.80291     0.11400    -0.22127
H     -1.05226     0.33513    -1.27244
C      1.76637     0.02493     0.32808
C     -2.75525    -0.28138     1.49811
