 11
no_name:-231.154096111492
C     -1.57578     0.53825     0.12251
H     -3.21546     1.43142    -0.90807
H      2.79932     0.37253    -0.69159
C      0.88158    -0.33769     0.29370
H      2.24353    -1.29452    -1.24978
H      2.28996    -1.33153     1.85821
C      2.18465    -0.51557    -0.47230
H     -3.53204     0.93748     0.87230
C     -2.84249     0.99297     0.02345
C     -0.40413     0.11208     0.22220
C      1.90148    -0.89498     0.94135
