  9
no_name:-192.473771915168
C     -0.08783     0.18297     0.79820
H     -0.82407    -0.33772     1.42990
H     -1.29675     1.47494    -0.80946
H      0.51278     0.88018     1.40265
C      0.78816    -0.79794    -0.07955
H      0.33756    -0.35364    -2.32563
C      1.62308    -1.70262     0.35794
C     -0.58087     0.69434    -0.54634
C      0.18184    -0.15875    -1.26365
