 14
no_name:-270.466263658351
C     -0.51647    -0.32828     1.23289
H     -2.48638    -0.78761     1.88757
H      0.08812     0.94140    -2.78899
C      1.58073     0.22564     0.29378
H     -1.23789    -0.75469    -0.78716
H     -1.12599    -0.98373     3.15743
C      0.60698     0.41905    -0.79221
H     -1.45591     0.93481    -0.28451
C     -1.42509    -0.72068     2.14036
H      2.65303     0.39737     0.18725
H      1.90278     1.05034    -2.35524
C      0.87962     0.82428    -2.04351
C     -0.77087     0.07272    -0.22787
C      0.91590    -0.18450     1.38818
