 11
no_name:-231.197023971236
C     -0.71197    -0.22796     1.63939
C     -0.12795    -0.93046    -1.87042
H      0.45528    -0.42867    -2.64743
C      0.18418     0.88741     1.22830
C     -0.17457    -0.44439    -0.61690
H      0.52265     1.67506     1.90458
H     -0.67067    -1.83814    -2.14621
C      0.50037     0.76549    -0.08709
H     -1.11649    -0.37051     2.64172
H      1.13560     1.42245    -0.68176
C     -0.89855    -0.98185     0.54167
