 11
no_name:-193.745323462789
H      1.43506     1.34450     1.31677
C      0.71185    -0.42305    -0.21838
H     -0.26473     0.92376    -1.74206
C     -0.04151    -0.49224     1.10359
C     -0.49493     0.15854    -0.97970
H     -1.22249    -0.57560    -1.36889
C     -0.75688     0.68066     0.44617
H      1.55578    -1.04126    -0.53556
H     -1.55402     1.29596     0.87162
H     -0.17106    -1.16962     1.94200
C      0.72290     0.70374     0.80610
