 17
no_name:-347.166236112982
C     -0.51789    -0.66967     1.59269
C      0.55921    -1.69295     1.30889
C      0.28166    -0.34036    -0.55581
C      0.15274     0.46797    -1.85194
H     -0.32722    -0.12931    -2.64562
H      0.17006    -2.72770     1.38501
H     -0.25457     3.38797    -0.02934
H     -2.58959     1.18500     0.00258
H      1.39190    -1.63562     2.03720
H     -1.06085    -0.60187     2.53634
C     -0.66459     0.11202     0.50090
C     -0.76824     2.51502    -0.43252
H      1.77493    -1.94718    -0.63612
H      1.11568     0.84067    -2.23391
C     -0.73412     1.55646    -1.31889
C      1.00719    -1.38385    -0.10363
C     -1.49400     1.23846    -0.04464
