 11
no_name:-231.111337579982
C     -0.62901    -0.19271    -1.25593
C      0.57442    -0.52565    -0.48481
H      1.92077     1.07292     1.80720
H      0.22468     1.20996     2.59751
H     -2.12595     0.03143    -2.91718
C     -1.15612    -0.08439    -2.44191
C      0.31028     0.25526     0.71948
C      0.84715     0.87747     1.76399
H     -1.49224    -1.18443     0.64535
H      1.21624    -1.40215    -0.60528
C     -0.87158    -0.40961     0.18868
