 13
no_name:-232.406171868756
H     -0.11810     0.48669    -3.61408
C      0.95757    -0.66502     1.57713
H      1.75496    -0.84722     0.85239
C     -0.59568    -0.13084    -0.39903
C     -0.40235    -0.25607     1.01490
C      0.47889     0.73874     1.76688
H      0.95176    -1.34396     2.43434
C     -0.74715    -0.01243    -1.62064
H      0.94414     1.52974     1.17348
C     -0.92272     0.11445    -2.97311
H     -1.87073    -0.15864    -3.44595
H      0.13615     1.04884     2.75793
H     -1.27274    -0.62805     1.56789
