 13
no_name:-269.787968436505
C      0.59195     1.05740     0.95586
H     -0.73074     0.83392    -1.37369
C      1.30865     1.99876     1.21803
C      0.47934    -1.33002     0.26427
H      1.93896     2.83404     1.45949
H      1.26205    -1.72505     0.92103
H     -0.94705    -0.27588     1.44185
C     -0.26768    -0.06660     0.59164
H      0.44013    -2.82121    -1.30844
C     -1.16498     0.07899    -0.68693
H     -2.18720     0.43049    -0.47242
C     -1.11400    -1.20147    -1.44757
C      0.03141    -1.89437    -0.89377
