  7
no_name:-191.161578246221
C      0.52730    -0.03558     0.98514
C     -0.23037    -0.20621    -1.02246
C      1.09655    -0.00378    -0.29721
C     -0.59049     0.38941     0.27169
C     -0.88432    -0.74926    -2.01195
H      0.90093     0.03240     2.00508
H     -1.21017     1.29106     0.37432
