 13
no_name:-232.440456790473
C     -0.42829     0.52945    -0.81246
C      0.34665     0.80148     0.35910
H      1.48189    -0.76227     2.58521
H      0.78377    -2.35023     1.88169
H     -1.45670    -1.38171    -0.24450
H      0.05496    -1.62940    -1.18718
H     -0.79338     2.34896    -1.87586
C      0.37549    -0.57034     0.76464
C      0.91012    -1.26751     1.80176
H      0.76229     1.71766     0.78602
H     -1.51984     0.79951    -2.63423
C     -0.94319     1.26657    -1.83176
C     -0.45773    -0.97042    -0.46658
