 14
no_name:-382.633360647359
H      1.56634     0.63772     2.81222
C     -0.84457     1.44733    -0.58139
C      0.77773    -0.85185     1.33550
C     -0.38591    -1.94669    -0.79261
C      0.60549    -1.27119     0.03255
H     -0.24664     3.20947     0.66707
C     -1.04281    -1.01646    -1.56798
H     -0.53160    -3.02697    -0.83570
H     -1.79468    -1.23797    -2.32673
C     -0.51015     0.30849    -1.28406
C      1.18680     0.37257     1.82877
C     -0.09757     2.19373     0.30992
C      0.81417     1.16151     0.69555
C      0.62624     0.12215    -0.39152
