 13
no_name:-344.53339119757
H      3.08996    -1.14708     3.82320
C      0.02856     0.50131    -1.00333
C     -1.32689     1.15188    -1.16788
C      0.87794    -0.72394     1.17209
C      0.48528    -0.16623     0.15623
H     -2.14322     0.87621    -0.48306
C      1.31060    -1.36081     2.32217
C      2.18085    -1.50224     3.33623
H     -1.55557    -0.61746    -2.64256
H     -1.29262     2.21957    -1.40833
C     -0.94226     0.21507    -2.27266
C      0.47546     0.32263    -2.36416
C      1.10461    -2.40059     3.30805
