 10
no_name:-342.62564963661
C      0.13663     0.92404     1.10398
C     -0.74322    -0.67715    -0.94552
C      1.39536     0.60768     0.77374
C     -1.76691    -0.06002    -0.22760
H     -2.84440    -0.12854    -0.36990
C     -1.04903     0.66789     0.72054
C      0.52368    -0.77695    -1.00421
C      1.60455    -0.31108    -0.36534
C      2.71924     0.22585     0.36585
C      4.08004     0.30984     0.54821
