 13
no_name:-307.24697423675
H     -1.84278    -1.02889     2.00983
C      0.67113    -1.24729    -0.09422
C     -0.86007    -0.54416     1.87989
C     -0.58519     1.35741     0.13470
C      0.87817     0.60869    -1.69459
C      1.18598    -0.70623    -1.28833
H     -0.43016    -0.42624     2.88928
C     -0.94464     0.74165     1.13494
C      0.07604     1.59607    -1.08571
H     -0.01881     2.56043    -1.59277
H      1.84170    -1.29901    -1.93237
C      0.03482    -1.29264     0.95551
H      1.33909     0.91397    -2.64003
