  7
no_name:-153.782478232812
C      0.00084     0.76216    -0.03570
H     -0.20911    -1.32708    -1.01913
H     -0.26994     1.36529    -0.91370
H      0.86129     1.15273     0.51968
C     -0.79823    -1.10704     1.15871
C     -0.12513    -0.74046    -0.09110
C     -1.08308     0.15746     0.79562
