 16
no_name:-309.08547988359
C     -0.73136    -0.88213     1.52799
C      0.49129    -0.86220     0.60720
C      0.11409     0.64707     0.41247
C      0.24746    -0.28591    -1.75340
H      0.51171    -0.35000    -2.81532
H     -0.56331    -2.16069    -0.86309
H      0.09792     2.81692    -0.01193
H     -1.82114     1.07347     1.73319
H      1.45611    -1.09559     1.08626
H     -1.21725    -1.69931     2.06613
C     -1.02779     0.42105     1.35925
C      0.66835     1.91194    -0.25657
H      1.74244     2.08784    -0.39250
H      1.18381    -2.12158    -1.10793
C      0.04447     0.83516    -1.04803
C      0.32056    -1.49741    -0.81877
