 10
no_name:-305.282522963065
C     -1.15475     0.58776    -1.47335
C     -0.78887    -0.32995    -0.34477
C      1.09042     1.10509     0.20665
C      0.01198     0.80576    -0.55637
H     -0.96549     0.26197    -2.50687
C     -0.55615    -1.22833     0.64206
C      1.39017     0.27894     1.19400
C      0.47934    -1.01148     1.43464
C      1.58866    -0.66534     2.18661
H     -2.04049     1.23189    -1.37025
