 14
no_name:-382.651254084348
H      2.97104    -4.07464    -2.65747
H     -2.52968     1.88372    -1.58249
C      0.15571     1.34017     1.65651
H     -3.40550     0.60121    -0.52921
C      1.49239    -0.57288     0.41178
C     -1.88103     1.69452     0.39766
C      2.27628    -2.43041    -1.21637
C     -2.63882     1.38013    -0.61487
C      2.64466    -3.30435    -1.98361
C      1.86496    -1.45277    -0.35873
H     -1.39785     2.78924     2.12771
C     -1.10100     2.00498     1.42028
C      1.06957     0.41620     1.28239
C      1.31040     1.20549     2.45890
