 16
no_name:-309.201928312426
H      1.98972    -0.53219     1.84686
H     -1.12855    -1.25460    -0.23009
C      0.66825    -0.77568    -1.31750
C      0.08317     0.14226     0.81466
H     -0.33093     1.83283     2.15798
H      1.01655     0.05689    -1.95372
H      0.47080    -1.63118    -1.98360
C     -1.61311     1.58469     0.29282
C     -0.55634    -0.33336    -0.46865
C      1.70427    -1.07153    -0.24375
H     -2.31146     2.41693     0.41021
H      2.62238    -1.63019    -0.44315
H     -2.26741     0.71973    -1.60823
C      1.36851    -0.52515     0.94915
C     -0.57313     1.24114     1.27369
C     -1.57688     0.72909    -0.76360
