 12
no_name:-231.764134314697
H      0.89595     0.77419    -1.51486
C      0.25385     0.39272    -0.71546
H     -1.61269     1.06411     0.32924
C      2.15080     0.06721     1.26649
C      0.90703    -0.32975     1.80012
H      0.36242    -0.71329     2.66446
C      0.92698     0.09622     0.53153
H     -1.01815    -0.70001    -2.19504
H     -1.19078    -1.30376    -0.46326
H     -1.44336     1.67940    -1.39864
C     -0.93163    -0.47604    -1.12878
C     -1.17976     0.91476    -0.66350
