 13
no_name:-269.82120207657
C     -0.22851     1.69798     0.33167
C     -0.60278    -2.13674    -0.07267
H     -1.93533    -0.79083     0.97523
H     -0.00817    -4.20435    -0.85517
H     -0.94994     2.42521    -0.04468
H      1.67811     2.82434     0.21444
H      1.65957     1.55107     1.54684
C     -0.28715    -3.23540    -0.48773
C     -0.25651     0.25129     0.26197
H      1.08317     0.86368    -1.50297
C      0.84501     0.87672    -0.43836
C     -0.98949    -0.86215     0.42739
C      1.23718     1.89405     0.59302
