 15
no_name:-345.871301112377
H      2.33119     1.19192     0.71282
C      1.54423     0.50003     0.40643
C     -0.32696    -0.39402    -1.28793
C      0.16279    -1.56964     0.77291
H      1.70061    -0.73557     2.10453
C     -0.56010    -1.54562    -0.36543
H      0.00147    -2.38642     1.48185
H     -1.28559    -2.32276    -0.61363
C      0.80225     0.70381    -0.87388
C      1.19275    -0.56846     1.15061
C     -0.62984     0.98409    -0.91343
H     -2.63181     1.64320    -0.88718
H     -1.32860     2.90771    -0.41081
C     -1.58169     1.89256    -0.72292
C      0.94329    -0.23347    -1.97580
