 10
no_name:-193.071841907012
C      0.91316    -0.70061     0.60656
H     -0.84868     0.67960    -1.65185
C     -0.63313     0.68606    -0.56826
H     -1.42102     1.32175    -0.12551
H     -0.62032    -1.53777    -0.63299
H      2.61332     0.72849     0.64378
C      1.58739     0.49252     0.35494
H     -1.20206    -0.89577     0.88984
C     -0.49501    -0.69116     0.06586
C      0.71079     1.32979    -0.33289
