  8
no_name:-266.506187379198
C      1.77138     0.07636     1.72136
C     -0.61220    -0.15293    -0.83768
C      0.76555     0.98516     1.18426
C      0.35320    -0.05888     0.19914
C     -1.42647    -0.22880    -1.72836
H     -2.15491    -0.30350    -2.51572
C      0.63133    -0.79638     1.46746
C      1.84098    -0.15713     0.28363
