 15
no_name:-271.089300281355
C     -0.37381     0.80816    -0.64375
H      1.92666     1.15530     0.05806
H     -1.62410     0.02563     2.36116
H     -0.39730     1.27465    -1.63255
H     -2.44143     1.44120     0.19778
C     -1.50440     0.90629     0.35105
C     -1.09933     0.20503     1.42308
C      0.94924     0.67106     0.11126
C      0.27382    -0.31175     1.06908
H      0.87788    -0.92994     1.73902
H      1.65611    -2.17080    -0.89720
C      0.36169    -0.52145    -0.44640
H      1.12339    -1.23936    -2.31880
C      0.80181    -1.63235    -1.34000
H     -0.00605    -2.36173    -1.51493
