 12
no_name:-194.345560003487
H     -0.16805     0.27559     2.06391
C      0.38611     0.12885     1.13250
H     -0.53101    -1.88089     0.74671
H     -1.47965     0.29283    -0.07764
H      1.38561     0.57445     1.13081
H     -1.46225     1.77208    -2.51816
C      0.17266    -1.13944     0.35783
H      1.02490    -1.56843    -0.17807
C     -0.39642     0.16432    -0.16522
H      1.30207     0.67372    -1.46349
C      0.21081     0.79806    -1.37060
C     -0.43664     1.47086    -2.30063
