  9
no_name:-267.188349387685
H      0.87941    -0.60781    -1.87172
C     -0.61774     0.63046    -0.85327
C     -1.08690     0.33791     0.37727
C      1.04839    -0.50344     0.32633
C      0.80605     0.11801    -1.04543
C     -0.02179    -0.35239     1.13354
C      1.16902    -0.87263     1.73835
C     -2.03003     0.87890    -0.55698
H      1.52969     0.91711    -1.27490
