 12
no_name:-231.742703031679
C      1.45695    -1.09575    -0.29028
H      2.25375    -1.52551     0.30019
C     -0.88485     0.05463     0.70258
C     -1.30803     1.32027     0.83336
H     -0.00313    -2.05195    -1.99425
H     -2.09568     1.58245     1.54455
H      1.54519     0.78335    -1.84436
C      0.14979    -0.38157    -0.21098
H     -0.87827     2.12747     0.23317
H     -1.33445    -0.73467     1.31831
C      1.11971    -0.01156    -1.24857
C      0.44387    -1.33174    -1.32363
