 14
no_name:-233.067370171684
C     -1.57381     0.27761     0.76119
H     -3.19240     0.72510    -0.60010
H      0.95747    -1.63056    -0.99814
C     -0.27964     0.10669     0.64825
H      3.38730    -1.92973    -1.21442
H      3.67790    -0.60924     0.07329
C      1.64382    -1.02723    -0.39336
H     -1.78160     1.81100    -0.75746
C     -2.40052     1.25229    -0.04065
C      2.96951    -1.19816    -0.51859
C      1.02318    -0.06561     0.51819
H     -2.11258    -0.33261     1.50185
H     -2.90401     1.97621     0.62327
H      1.70089     0.54505     1.13161
