  9
no_name:-229.79990211241
H      0.20457     1.27400     1.71020
C      0.03075     0.47528     0.98651
C      0.96066    -0.58011     0.71744
C     -1.00235     0.42878     0.01130
C     -0.73650    -0.65679    -0.88411
C      0.52957    -1.20219    -0.49781
H     -1.77205     1.18487    -0.15535
C      0.60687     0.52830    -0.66222
H      1.10892    -1.92117    -1.07739
