 13
no_name:-232.417140806751
H     -1.31890    -1.25170    -1.07238
H     -1.90878     1.00939    -1.72671
H      2.05081     1.90798     2.16498
H      0.87923    -1.47123     1.13600
H     -1.04259     2.46297    -0.91275
C     -1.17428     1.38474    -1.01001
C      0.53372     1.03281     0.69384
C      1.33836     1.49677     1.47499
C     -0.42411     0.49145    -0.23872
H     -0.51522    -2.58086     0.99344
C      0.17358    -1.92681     0.42684
H      0.74285    -2.59531    -0.24623
C     -0.57703    -0.89934    -0.34697
