 15
no_name:-345.8052178015
C     -0.49289     1.03955     1.06390
H     -1.57614     1.54186    -2.94585
H      0.27559    -2.04675     0.05805
C      0.47982    -1.01476     0.36034
H     -1.14007     1.91900     1.02896
C     -1.22834     0.08064    -1.15586
H      2.72109    -1.31422     0.30880
C     -0.48681     0.04867     0.05672
C     -1.65368     0.68073    -2.28057
C      1.12468    -0.51241     1.65848
C     -2.19244    -0.58113    -2.00762
H      1.40086    -1.20088     2.46252
C      0.59467     0.84245     1.93381
H      2.18203     0.40449    -0.09341
C      1.94940    -0.54306     0.40288
