 17
no_name:-384.51979034482
C      1.08337    -0.44937     0.92436
H      1.52447    -2.42691     1.62867
H     -4.01315     0.95543    -3.71196
H      2.85766    -1.25459     1.84508
C      1.65569     0.51900     0.11550
C      1.76466    -1.37622     1.86882
C     -2.55114     0.36837    -2.05137
C     -3.32635     0.68319    -2.93245
C      0.66621     1.20955    -0.64512
C     -1.66398     0.03784    -1.01076
C     -0.61036     0.72979    -0.25798
H      1.42111    -1.20788     2.90602
H      0.86246     1.90109    -1.46550
H      2.73137     0.69208     0.03206
C     -0.40299    -0.35909     0.75103
H     -1.02066    -0.35693     1.65969
C     -1.12089    -1.07615    -0.43221
