 11
no_name:-156.33567670368
H      0.09449    -1.73275    -1.20513
C      0.59801    -0.35690     0.50469
C     -0.01154     0.84398    -0.17275
C     -1.19046     1.38823     0.13968
C      0.82324    -1.50828    -0.42108
H     -1.58103     2.25775    -0.39674
H     -1.80946     0.98464     0.94876
H      0.57598     1.27170    -0.99546
H      1.63005    -2.22438    -0.24431
H     -0.05907    -0.66103     1.34896
H      1.55919    -0.06951     0.97208
