  9
no_name:-192.456600295474
H      0.95077    -0.20762     3.38699
C      0.16765    -0.30572     1.23475
C     -0.73261     0.42432    -2.23368
H     -1.18048    -1.04117    -0.27959
C     -0.31429    -0.39729    -0.08781
C      0.15584     0.35495    -1.15258
H     -0.68144     1.43100    -2.70629
C      0.58156    -0.24981     2.37875
H      1.07409     0.95169    -1.02126
