 13
no_name:-381.903934258257
C      1.12989     0.77606    -0.82272
H      0.44995     1.61155    -1.04696
C     -2.44474    -0.88325     0.07628
C      1.47945     0.43447     0.63163
C     -1.00640    -0.09931     1.55016
C     -2.26612    -0.31262     1.22799
C      0.29064    -0.15719     1.43022
H      2.33530     0.78982     1.21315
C      0.46520    -0.61670    -0.92003
C     -2.02203    -1.15471    -1.15170
C     -0.73718    -0.99570    -1.32799
H      2.04854     0.87550    -1.42393
C      1.07256    -0.98880     0.47779
