 11
no_name:-156.24022837486
H      0.69722     0.59774    -1.53361
C     -0.80634     0.78188     0.89106
H      0.74993    -1.18372    -1.59819
H     -0.87909     0.73378     1.98893
C      0.02049    -0.38063     0.34101
H     -0.44631    -1.34158     0.61191
C      0.14442    -0.30632    -1.19204
H      1.02971    -0.37204     0.78719
H     -0.35650     1.75373     0.62716
H     -1.82972     0.76429     0.48170
C     -0.89920    -0.76662    -2.05521
