 11
no_name:-268.543567128104
H      0.90468     0.90750     1.67801
C      0.74012     2.43969     0.01819
H      1.39888     3.30649     0.04141
H     -2.00177    -0.25454    -1.16512
C      0.69350     1.15924     0.62631
C     -0.44638     0.71387    -0.15189
H      0.11482    -3.85668    -0.03991
C     -0.22668    -2.85085    -0.19638
C     -0.60650    -1.70990    -0.37508
C     -1.07983    -0.38798    -0.58832
C     -0.61762     2.19964    -0.19221
