  9
no_name:-267.23507716926
C      1.29027     0.17359     0.51610
C     -1.03400    -0.01814    -0.63176
C      0.08550    -0.40958     0.09432
H      3.29011     1.07912     1.16335
H     -3.01142    -0.07390    -1.76513
C      2.35323     0.65215     0.85730
C     -0.88499    -1.32947     0.56070
C     -2.33264    -0.33838    -0.96015
C     -1.90942    -1.50911    -0.30451
