  9
no_name:-155.113657168088
C      0.10181    -0.00165    -1.00815
H     -1.40012    -1.32442     0.34875
H      1.72896     1.49054    -0.02204
C     -0.59398    -0.60058     0.22000
H      0.66871    -0.71362    -1.63494
C      0.21380     0.14985     1.08594
H      0.27187     0.22865     2.17485
H     -0.53347     0.61772    -1.66692
C      0.91937     0.76180     0.04050
