  9
no_name:-229.790263661239
H     -1.23342     1.83094     0.59820
C      0.49236     0.39013    -0.20669
H      0.70300     0.46670    -1.27880
H      0.12033    -1.96162    -0.40140
C      0.14222    -1.11312     0.29046
C     -0.81874     0.83676     0.44308
C      1.36056    -0.55894     0.77326
C     -1.11688    -0.41288     0.79725
C      1.93647     0.59527     0.78481
