 10
no_name:-230.464956580627
H      2.21569    -1.60867    -0.91750
C     -0.81154    -0.17154    -0.49376
H     -1.84839    -0.36652    -0.77161
C      0.24255    -0.85399     0.25088
H      0.63653     1.54804     2.31642
C      1.20571    -1.21877    -0.84945
H     -0.79496     2.35123     1.40809
C      0.37120    -0.37915    -1.44422
C     -0.12190     0.49818     0.65728
C     -0.09131     1.52010     1.50112
