 13
no_name:-307.223710177119
C     -2.36125     2.29926    -1.31852
H     -3.62914     3.68941    -2.64223
H     -0.11856     0.08072     2.03137
H      0.05747    -2.21452     0.68169
C     -3.03742     3.04019    -2.02469
C      1.96067    -1.35092     0.89822
C      0.58534    -1.28125     0.40019
H      0.58199    -1.24908    -0.70182
C     -0.17720    -0.09573     0.95108
H      4.09768    -1.43314     1.70221
C     -0.92608     0.73197     0.18042
C      3.09229    -1.39334     1.32719
C     -1.61664     1.48122    -0.54076
