 15
no_name:-308.582602283284
C     -0.22479    -1.71122     0.82318
C      0.17272    -2.08609    -0.47151
H      0.74751    -1.37972    -2.43773
C     -0.35849    -0.37507     1.16648
H      0.27441    -3.14205    -0.73174
H      0.44166     3.85794     1.23787
C     -0.09425     0.65639     0.20318
C     -0.22221     1.98629     0.53054
H     -0.66690    -0.08618     2.17322
C      0.43800    -1.09244    -1.42928
C      0.31188     0.25107    -1.11295
C     -0.37800     3.24569     0.82948
H      0.51832     1.02129    -1.85874
H     -0.43213    -2.48099     1.57133
H     -1.33900     3.76659     0.69064
