 13
no_name:-344.479537610211
H     -2.28325    -1.21957     0.50827
C      1.07657    -0.23949     0.19800
H      2.36971     2.69791     1.61580
H     -1.77723     0.76280    -1.55964
H     -0.80523    -1.92603    -2.05279
C      1.76502     1.92921     1.14691
C     -1.36731    -0.89012     0.01862
C      0.09384    -1.22744     0.05465
C     -0.67224    -1.21979    -1.23620
C      1.70961     0.56741     1.12473
C     -1.00523     0.22655    -0.99404
C      0.30338     0.85375    -0.53566
C      0.68032     1.91046     0.26622
