  9
no_name:-229.792426511411
C      0.04747    -0.26252     0.29522
C      1.10756     0.60245    -0.29420
H     -0.02359     2.56290    -1.20702
C     -0.45206    -1.48792     0.35192
H     -1.32426    -1.70137     0.97281
C      0.37016     1.90954    -0.43630
H      0.00818    -2.29970    -0.21468
C     -0.09310     1.14091     0.77500
C      1.27590     1.66510     0.70427
