 14
no_name:-233.063296076138
C      0.19522     1.07137    -0.55436
C     -0.51875     1.09995     0.77336
H      0.88795    -0.53592    -1.87379
H      0.05647    -0.55186     2.20610
H     -0.88119    -0.33527    -1.84607
H      1.77109     1.46364     1.20972
C      0.02923    -0.29528    -1.22588
H     -1.19462     1.80026     1.25848
C      0.07555    -0.23082     1.15981
C     -0.05774    -1.23411     0.01013
H     -1.01534    -1.77821     0.05546
H      0.28984     1.99100    -1.14042
H      0.75367    -1.98005     0.02620
C      0.94015     0.93428     0.74934
