 10
no_name:-193.123806835265
C      0.36359     0.07740     0.24667
H     -0.68849     0.68822    -1.60384
C     -0.78683     0.57415    -0.51573
H     -1.44446     1.32085    -0.05025
H     -0.65539    -1.68873    -0.61754
H      3.72547     0.67280     1.57241
C      1.60925     0.29635     0.73339
H     -1.41112    -1.05386     0.93518
C     -0.76711    -0.84036     0.07127
C      2.73599     0.50293     1.19275
