 15
no_name:-345.8803163485
C      0.25722     1.81035     1.35609
C      0.91256     2.57416     0.32848
H     -0.44705    -3.65053    -3.13407
C     -0.22376     1.61518     2.54808
C      0.43580     0.32160    -0.95028
H     -0.10874     0.96833     4.55610
C      0.32054    -0.61896    -1.72443
C     -0.71513     1.40106     3.74849
C      0.19406    -1.68255    -2.65411
H      0.59645    -1.50153    -3.65876
H     -0.78893    -3.08330    -1.38278
H     -1.75756     1.63944     4.00094
C      0.53656     1.34861    -0.02488
C     -0.37859    -2.86921    -2.37310
H      1.38909     3.50990     0.04069
