 13
no_name:-232.359808940832
H     -1.69901     0.25985     0.41706
H     -1.46830     0.02396    -2.07460
H      0.79847     1.82135     2.63206
H      0.34775    -1.93911    -0.43544
H      0.36585     0.10149    -1.92625
C     -0.58259    -0.20153    -1.47490
C      0.42537     0.48377     0.76915
C      0.94746     1.19146     1.75835
C     -0.71531    -0.02642     0.03307
H     -1.48815    -2.03733    -0.57836
C     -0.59405    -1.40884    -0.59891
H      2.61917     0.92496     0.16217
C      1.88067     0.50093     0.86535
