 16
no_name:-383.91490905314
C      1.78188    -0.78540     0.15295
H     -3.31290    -0.17190    -3.53234
C     -1.69976     0.19768    -1.36829
C      2.83468    -0.10558     2.41730
C     -0.58533    -0.24761    -1.12815
H     -4.68944     0.91989    -2.88617
H      4.35841    -0.11642     3.88072
H     -3.40588     1.38740    -0.85520
C     -2.98752     0.73075    -1.62820
H      2.83518     0.89707     4.27648
C      3.36789     0.24122     3.57939
C      2.32665    -0.44180     1.30037
C      0.67274    -0.73112    -0.81058
C     -3.70030     0.47794    -2.74331
C      1.75797    -1.45758    -1.10235
H      2.26050    -2.11023    -1.81513
