  9
no_name:-229.883647037839
H     -0.56193     2.38126     1.93253
C      0.21825    -1.06444    -1.03020
H      1.74497     0.06005    -2.41910
C      1.01413    -0.65553    -2.04014
C     -0.41213     0.33296     0.89502
C     -0.33666    -0.90095     0.26189
H     -0.73298    -1.78835     0.76956
C     -0.49880     1.42671     1.44342
C      0.29786    -1.84476    -2.23740
