 13
no_name:-382.077476686458
H     -1.21316    -1.21039    -1.95853
C     -0.56917    -0.98179    -1.11082
C      0.23387    -1.89796    -0.40534
C      0.94187    -1.27103     0.63755
H      1.62969    -1.75431     1.32966
C     -0.74513     2.71738    -0.24060
C     -0.41749     0.28951    -0.55433
C      0.66318     2.44765     1.38839
C     -0.08978     3.37889     0.74800
C      0.62864     0.08922     0.65605
H      0.29905    -2.96197    -0.63810
C     -0.87770     1.56126    -0.73959
C      0.94199     1.21280     1.36511
