 13
no_name:-232.421283908297
H      1.42208    -1.79173     3.31912
C      0.19424    -0.59392     1.99452
H      2.19253    -1.38129     1.65794
C     -0.82702     0.09143    -1.51105
H      0.07751     1.74097    -0.39460
H     -1.12339    -0.96052    -1.43453
H     -0.73859     1.81408    -2.75746
H     -0.62194    -0.55050     2.73122
H     -1.48149     0.28332    -3.52626
C     -0.22147     0.68270    -0.31340
C     -1.02628     0.76246    -2.65605
C      1.34773    -1.30252     2.34595
C     -0.01579     0.04994     0.82231
