 12
no_name:-306.517285169108
C     -0.08176    -1.64853     1.74494
C      0.27384    -0.72056     0.68565
C      0.65274    -0.62277    -0.72062
H      0.34562     0.97956    -2.16355
H     -0.19535     2.31631     0.10633
C      0.18089     0.57382    -1.16216
H     -1.66784     1.48310    -0.42510
C      0.43349    -2.61011     2.45871
C     -0.62481     1.32037    -0.10325
C     -0.55222     0.35056     1.03802
H      1.23398    -1.34974    -1.28704
C     -1.32949    -0.68589     1.60814
