 17
no_name:-347.23255943034
C      1.07405     0.05203     1.78732
C      0.93413    -1.39851     1.60709
H     -1.97019    -1.05336    -1.14422
H      1.63034     0.52778     2.59640
H      0.03796    -2.65655     0.04055
H      0.77234     2.90083     0.43619
H      0.06354    -0.22650    -2.45637
C      0.48116     0.66791     0.72425
H      1.29656    -2.14234     2.31945
H      0.04450     2.49695    -2.05354
C      0.14412     1.72574    -1.28646
C      0.31026    -1.67364     0.42537
C     -0.08884    -0.37772    -0.16505
C     -1.46676    -0.14307    -0.80488
H     -2.11495     0.62179    -0.36663
C     -0.22496     0.28163    -1.53220
C      0.50124     1.93577     0.00474
