 14
no_name:-270.407442513929
C      0.90198    -0.96129    -0.79734
H     -0.16808     1.97609     2.08197
C     -2.19169     1.38815     1.68244
C      1.61631    -1.96611    -1.66465
H     -2.89574     0.87931     1.02032
H      2.69000    -1.83600    -1.88326
C     -0.82836     1.44923     1.37683
H      0.46684     0.97249    -1.68690
H     -2.57472     1.84993     2.59441
C      0.36131     0.38341    -0.76325
H      1.09566    -2.77668     0.62122
H      1.06996    -2.47413    -2.47763
C     -0.23476     0.92037     0.28273
C      1.15148    -2.11460    -0.23874
