 11
no_name:-268.484938232879
H      0.57182     0.11700     1.62814
C      0.23159     0.03719     0.58628
C     -0.01632    -1.31907     0.14466
H     -0.39992    -3.46842    -0.52807
C      0.79913     1.10915    -0.32035
H     -1.16726     1.97457     0.66683
H      1.67603     1.75166    -0.24509
C     -0.59737     1.21856     0.12727
C     -0.21709    -2.45946    -0.20862
C     -0.29523     1.14114    -1.32610
C     -0.67700     1.27048    -2.55943
