 15
no_name:-271.158175792776
H      0.65518     3.09124     0.90245
H     -1.85226    -1.59186    -2.07122
C     -0.17429    -1.37588     0.81129
H      2.09898     2.48571     0.08843
H      0.22497    -1.69334     1.77476
H      1.22328     0.74901     1.75933
H     -1.28935    -3.12207     0.09775
C      0.76847     0.95133     0.78115
H     -0.70592     0.78518    -1.77337
C      0.04784    -0.04553     0.21669
C     -0.94445    -2.09701    -0.04557
C      1.01537     2.30822     0.21136
C     -0.66355    -0.04782    -1.07320
C     -1.24928    -1.26686    -1.22175
H      0.52879     2.45555    -0.76243
