 14
no_name:-195.597743685473
H     -1.20540    -0.69959     2.85975
H     -1.28646    -0.08674    -1.46435
H     -1.16732    -1.76846     0.35796
C      0.73877    -0.11083    -0.78559
H      1.50117     1.83916    -0.43440
C     -0.72059     0.15019    -0.54483
C     -1.30137    -0.69165     0.61045
C      1.71516     0.79661    -0.69428
H     -2.39778    -0.55283     0.65081
H     -0.87961     1.22209    -0.33809
H      2.76129     0.53624    -0.87935
H      0.99945    -1.14693    -1.04317
H      0.32232    -0.01253     2.01346
C     -0.69777    -0.39901     1.93931
