  9
no_name:-304.497667066039
C     -0.20365    -0.52844    -1.17309
C      0.90261    -1.53631    -0.90423
C      0.89017    -0.12091    -0.17594
C      0.93422     1.18588     0.48562
C     -0.41832     1.30785     0.80059
C     -1.59022     0.77132     0.74423
C      0.08190    -1.31273     0.35640
C     -0.97516    -0.36031     0.04958
H      1.77750     1.84564     0.66697
