  8
no_name:-229.130967036253
C      1.36076     1.18019     0.29066
C      0.21675     0.37409    -0.00060
H     -2.18356    -1.69691     0.62042
C     -1.51114    -1.22103    -0.12545
C     -1.05694     0.01430     0.35446
C      2.54061     0.88034    -0.46618
C      1.39475     0.06084    -0.71996
H     -1.57650     0.67474     1.06755
