 14
no_name:-270.384477187952
C     -0.28582    -0.72911    -0.10831
C     -1.39996    -0.07407     0.63671
H      1.93323    -0.88591    -0.23480
H      1.79710     3.30311    -1.25171
H     -1.16226     0.85346     1.16811
C      1.36695     1.08992    -0.86868
H     -0.35978    -0.79607    -2.42148
C      1.59057     2.26510    -1.07220
C     -0.79007    -1.36564     1.14731
H     -1.36993    -2.28868     1.04600
H     -2.40048    -0.10868     0.19462
H     -0.14901    -1.31763     2.03301
C      1.08355    -0.30276    -0.62002
C      0.07817    -1.04831    -1.45331
