 14
no_name:-270.422428884469
C      0.99318    -0.96102    -1.42986
H      0.95079     0.11309     1.06327
C     -1.26157     0.29398     1.32237
C      1.96528    -1.62700    -2.03328
H     -2.15780    -0.12689     0.85656
H      3.67622    -2.78633    -3.07992
C      0.02152     0.27476     0.51018
H     -0.92967    -0.14442    -1.42283
H     -0.24596     2.28611     1.46486
C      0.00590    -0.30044    -0.85747
H     -1.18023     0.10043     2.39556
H     -1.22962     2.04442    -0.06782
C     -0.71320     1.57692     0.77602
C      2.88263    -2.25053    -2.59517
