 13
no_name:-269.81227481684
H     -2.42000    -0.14438    -0.92485
C      1.55340     1.20503    -0.27334
C     -1.26535    -1.28011     0.46706
C     -2.39044    -0.95747    -0.19348
C      0.02433    -0.60445     0.33932
H     -3.31790    -1.51272    -0.03247
H      3.77306     0.65294     0.27268
C      2.88133     1.16450    -0.09322
H     -1.28548    -2.13577     1.15130
C      2.34476     2.30903    -0.72146
C      0.23685     0.63883    -0.15337
H     -0.59886     1.26647    -0.48038
H      0.89952    -1.16373     0.69004
