 10
no_name:-267.879703274
C      0.97314     0.73715    -0.65601
C     -0.31977     0.31837    -0.87461
C      1.41872     0.09951     0.58579
H      1.57885     1.40850    -1.26215
C     -1.54758    -0.27559    -0.78573
C     -0.72224    -0.61186     0.25045
H     -2.53354    -0.39901    -1.24111
C      0.33732    -0.73202     1.12084
H      0.39817    -1.31856     2.03583
C      2.64826     0.25626     1.15613
