 10
no_name:-230.596268598143
C      0.84463    -0.34295    -0.23969
C     -1.35340    -0.49486     0.29888
H     -0.22321    -2.27109    -0.45076
C      1.57381     0.79303    -0.14139
C      0.30621     1.05106     0.25714
H     -1.72491     1.61529     0.93405
H     -2.34695    -0.93198     0.44883
C     -0.23107    -1.21490    -0.17963
H      2.56691     1.23024    -0.29028
C     -1.03290     0.86008     0.56001
