 19
no_name:-348.474527418356
H     -2.63500     0.65992    -0.09400
C      0.42083    -0.72528    -1.07410
H      2.38566    -1.69349    -0.93839
H     -0.65849    -0.79842    -2.93012
H     -0.55078     2.13891     2.51378
H      2.98988    -0.66453     1.22449
C      1.68867    -1.03139    -0.41802
H     -2.27181    -0.50726    -1.49038
C     -0.12653     0.73105     0.93618
C      2.02111    -0.45834     0.76220
H      1.44812     0.94860     2.34149
C      1.11764     0.46559     1.41757
C     -0.59292     0.04422    -0.28488
H     -1.94218     1.13025     2.04917
C     -1.05656     1.66304     1.66144
H      0.98307    -1.68058    -2.89185
C     -1.89915     0.07311    -0.64438
C      0.22887    -1.09014    -2.36521
H     -1.43196     2.45820     0.99494
