  8
no_name:-229.171609938953
H      1.42413     0.09535    -0.74461
C     -0.46233     1.00929    -0.13589
C     -0.18525    -0.98798     0.25682
C     -1.39929    -1.58916     0.27975
C     -1.79058     1.23717    -0.27704
H      1.29451     0.42411     1.02037
C      0.73380     0.16738     0.10915
C     -1.50975    -0.16340     0.00536
