 17
no_name:-309.747000535504
C      0.23014     0.88379    -0.35329
C     -0.57527     1.19004     0.96406
H      0.08259     1.68550    -1.09769
H     -3.33867    -1.10411     0.53860
C     -1.58181     0.10249     0.54212
H     -3.22648     0.17957     1.89676
H     -0.02403     0.90488     1.87453
H     -0.37057    -2.42947    -1.17175
H      2.14678     0.21025     0.53538
H      2.17450    -1.82350    -1.25536
H     -0.95823     2.21746     1.07967
C     -0.69380    -0.29461    -0.53287
H      2.32826     0.85513    -1.09900
C      1.64941     0.27427    -0.45253
C      0.04001    -1.43763    -0.96910
C      1.37740    -1.12600    -0.98452
C     -2.77936    -0.29777     1.02077
