 13
no_name:-195.018940285103
H     -1.33012     1.21082     1.05325
H     -1.27471    -0.35495    -1.51928
H     -0.64221     1.31764    -1.48912
C     -0.59643     0.33765    -0.99186
H     -0.67536    -0.95585     2.24405
C      0.87406    -0.14346    -0.77049
C      0.66128    -0.04509     0.74418
H     -0.71970    -1.83534     0.62800
H      1.60966     0.58044    -1.15066
H      1.39979     0.31883     1.46417
H      1.13555    -1.14418    -1.15536
C     -0.77967     0.42555     0.52733
C     -0.49647    -0.90431     1.16599
