 16
no_name:-309.094120254301
C     -0.77061     0.79636    -0.13477
C     -0.98522    -1.80127    -0.09154
H      1.10374    -0.42000     1.90670
H     -2.25224    -3.69655    -0.27939
H     -1.83513     0.91246    -0.34703
H      0.17918     2.74263     0.05683
H      0.11056     1.89975     1.65093
C     -1.65747    -2.80730    -0.19131
C      0.30750     0.30943    -1.05956
H      1.85786    -1.24372     0.48742
C      1.32148     0.85120     0.02542
C     -0.17970    -0.62808     0.03894
C      0.18326     1.76240     0.55799
H      2.32266     1.25403    -0.16878
H      0.34515     0.16690    -2.13931
C      1.13938    -0.47384     0.80485
