 14
no_name:-270.460093272777
H      1.38689     1.02426     1.37500
H     -0.78169     0.33903    -1.93857
C      0.65379     1.48541    -0.90766
C      1.42151     2.44092    -0.92266
H     -1.73680    -2.33820     0.35965
H     -1.95936    -1.55357    -1.32106
C     -1.46785    -1.54862    -0.34533
H      2.09882     3.27390    -0.91919
C     -0.54049    -0.58102    -0.01381
H      1.33079    -0.03960     2.90517
C      0.07010    -0.65826     1.32978
H     -0.28953    -1.50767     1.92212
C     -0.23867     0.41946    -0.98965
C      0.97589     0.15619     1.88956
