 12
no_name:-381.341724492478
H      2.31189    -1.38050     1.01833
C     -1.05386    -1.31889     0.38396
C      0.16190    -1.23859     0.55815
H      2.76434     0.84430    -0.06053
C      0.63749     1.09960    -0.57546
C      1.75656     0.42257    -0.02148
C     -1.82336     0.87687    -0.90002
C      1.50977    -0.79070     0.56699
C     -2.11862    -0.57256    -0.19634
C     -2.64132     0.69326     0.28488
C     -0.49984     1.40077    -0.93701
C     -2.30385    -0.29516    -1.60901
