 13
no_name:-344.616701713534
C      0.34509     0.63085     1.53783
C      2.19529     0.75143     0.01997
C     -2.02988    -1.00994    -0.63652
C     -0.00391     0.40217    -1.13238
H      3.26112     0.87310    -0.18616
C     -1.33057     0.26755    -0.43656
H     -3.12949    -2.98626    -0.95128
C     -0.70287     0.46373     0.91605
C      1.74747     0.79101     1.33140
C     -2.61916    -2.05254    -0.80455
H      2.46735     0.94377     2.13873
C      1.20835     0.55476    -0.99120
H     -2.02477     1.08778    -0.69800
