  9
no_name:-304.545950278729
C      0.55118     1.10418     0.62179
C     -0.52706    -0.96197    -0.77471
C      1.68060     0.19200     0.76785
C     -1.45472    -0.22184     0.11799
H     -2.51165    -0.46578     0.23324
C     -0.75330     0.75411     0.71919
C      0.67089    -0.98335    -1.13632
C      1.59716    -0.04019    -0.63157
C      1.26799     1.34640    -0.62507
