 14
no_name:-307.947963694052
C     -0.29858    -0.54570    -0.21277
H      1.22949     2.53947     0.49691
H     -3.15544     0.15291    -2.46738
H      2.39576     0.32128     1.70359
C      0.51992     1.82964     0.06312
C      1.30847    -1.50862     1.14218
C      1.59050    -0.17766     1.16504
H     -0.26554     2.22135    -0.58921
C      0.60614     0.51213     0.32002
H     -0.30880    -2.71507     0.09040
C     -1.39338    -0.29917    -1.07655
C      0.14009    -1.74223     0.29098
C     -2.32785    -0.04608    -1.81323
H      1.85346    -2.29371     1.66775
