  8
no_name:-266.467412755026
C      0.13401     1.04282     0.10088
C      0.69119    -0.31263    -0.81078
C     -0.81080    -0.07324    -0.45095
C     -1.03069    -0.90836     0.65694
C      0.45492    -0.31749     0.68588
C      1.08749     1.08707    -1.01539
C     -0.33154    -1.31091     1.68313
H      1.21141     1.72500    -1.88791
