 13
no_name:-307.144536294046
C     -0.02380     0.52894     1.20247
H     -0.34398     1.24363    -1.73007
H      2.54027    -0.61752     1.16008
C     -1.73669     0.03553    -0.35228
H      2.21827    -1.65878    -0.36840
H     -2.75699    -0.33652    -0.47988
C      0.60283    -0.45820     0.31216
C      1.85734    -0.94024     0.37188
H     -1.42979    -0.00047    -2.54749
C     -0.90745     0.30709    -1.63424
C     -1.31304     0.79823     0.82610
C     -0.82251     1.39120     2.02718
C     -0.46335    -0.73550    -0.69795
