 11
no_name:-343.261339679622
C      1.65710     0.65336     0.80377
C     -0.21030    -0.64192     1.62520
C      1.62653     1.16066    -0.49667
C      0.40336     0.76356    -0.98553
H      2.36067     1.80611    -0.97953
C     -1.54773    -1.00260    -0.58182
H     -1.91794    -1.84977    -1.15749
C      0.98917    -0.12574     1.56006
C     -0.75508     0.21424    -0.92977
C     -1.26353    -0.82146     0.88716
C     -2.02173     0.22344     0.03649
