 19
no_name:-348.461223480515
H      2.33855     2.10350    -0.11322
H     -0.25731    -1.27956    -2.84968
C      0.58639     0.47201    -1.82130
H     -0.18484     0.98251     2.23481
C     -0.06758    -0.70964    -1.94018
C      1.24737     2.15341     0.05266
H      0.88366     3.02592    -0.51746
C      0.58227     0.89852    -0.41165
H     -0.56913    -0.88877     3.69225
H      1.05094     1.04262    -2.62771
H     -1.67915    -2.80323    -1.17633
C     -0.55790    -1.09511    -0.60504
H     -1.79767    -2.32797     0.62496
C     -0.07833    -0.04731     0.33943
H      1.08311     2.34819     1.12141
C     -1.38150    -2.13310    -0.36451
C     -0.25249    -0.01501     1.78406
H     -0.47081    -2.08813     2.27208
C     -0.45159    -1.05253     2.61794
