 15
no_name:-345.882197510359
H     -0.20127     2.37823     1.31651
C      1.58369    -1.70670    -1.01310
H      3.45757    -2.96428    -1.39439
C      2.57203    -2.38264    -1.22003
C     -1.08451    -0.76922     1.00035
C      0.17543     0.34140    -0.98529
H     -1.86853     2.22188     0.78122
C     -0.89795     1.69367     0.80010
C      0.39452    -0.96379    -0.77661
H     -1.42678    -2.35075    -0.44863
H     -0.56376     0.43770     2.64691
H     -0.99768     2.03014    -1.43016
C     -0.91850     0.39085     1.61103
C     -0.50824     1.42263    -0.65946
C     -0.81911    -1.53385    -0.04861
