 16
no_name:-309.131460754563
C     -0.37588     1.33770    -0.44844
H      1.13634     0.94053    -1.87349
H     -2.05431    -1.11850     0.83668
H     -0.53885     2.33477    -0.87350
H     -0.95330     1.59044     1.60419
C     -1.24952     0.96653     0.73682
C     -1.15158    -0.52646     1.05262
C      0.57544     0.56182    -1.01310
C      0.19052    -1.08857     0.67366
H      0.29637    -1.16162     2.96940
H      2.18910    -2.51077    -0.64487
C      0.96837    -0.77020    -0.50792
H      2.45470    -1.20719    -1.96245
C      1.92554    -1.53772    -1.06447
H     -2.29179     1.25344     0.51362
C     -0.07858    -1.08879     1.94993
