 13
no_name:-344.620661715435
H      2.83357    -1.04515     2.56170
H     -2.72505    -0.68871     2.63393
C     -1.10372     0.47102    -1.60540
H     -2.13084     0.57834    -1.94613
C      1.26786     0.32517    -1.63416
C     -1.46004    -0.12827     0.80778
C      2.25591    -0.71398     1.71899
C     -0.66722     0.22665    -0.30375
C      1.60328    -0.32446     0.76833
C     -2.13150    -0.43342     1.77599
H      2.29238     0.30186    -1.99803
C      0.05782     0.13606    -2.33635
C      0.83428     0.13312    -0.32211
