 14
no_name:-270.475557999249
C      1.54636     0.40151     1.00167
H     -2.86164    -1.39760    -2.47763
H     -2.22112    -0.03148    -0.53738
C      1.90979     1.18290     2.11011
H      0.66881    -1.04511    -1.10785
C     -1.45035    -0.59821    -1.07488
H      2.52891     2.45210     3.91935
C     -0.11683    -0.48650    -0.58457
H     -1.08681    -1.93062    -2.71282
C     -1.82166    -1.34941    -2.14697
C      0.24528     0.28918     0.51804
H     -0.54248     0.84632     1.03818
C      2.23700     1.85828     3.07391
H      2.34557    -0.15041     0.49169
